/*--------------------------------*- C++ -*----------------------------------*\
  =========                 |
  \\      /  F ield         | OpenFOAM: The Open Source CFD Toolbox
   \\    /   O peration     | Website:  https://openfoam.org
    \\  /    A nd           | Version:  7
     \\/     M anipulation  |
\*---------------------------------------------------------------------------*/
FoamFile
{
    version     2.0;
    format      ascii;
    class       extendedFeatureEdgeMesh;
    location    "constant/extendedFeatureEdgeMesh";
    object      geometry.extendedFeatureEdgeMesh;
}
// * * * * * * * * * * * * * * * * * * * * * * * * * * * * * * * * * * * * * //

// points

2108
(
(0 0.05 0.05)
(0 -0.05 0.05)
(1 0.05 0.05)
(1 -0.05 0.05)
(0 -0.05 -0.05)
(0 0.05 -0.05)
(1 -0.05 -0.05)
(1 0.05 -0.05)
(0.189863 0.0159703 0.05)
(0.186033 0.0127564 0.05)
(0.210137 -0.0159703 0.05)
(0.213967 -0.0127564 0.05)
(0.210137 -0.0159703 -0.05)
(0.186033 0.0127564 -0.05)
(0.189863 0.0159703 -0.05)
(0.213967 -0.0127564 -0.05)
(0 0.0166834 0.05)
(0 0.0159703 0.05)
(0 0.0174648 0.05)
(0 0.0183212 0.05)
(0 0.0192597 0.05)
(0 0.0202881 0.05)
(0 0.0214152 0.05)
(0 0.0226502 0.05)
(0 0.0240038 0.05)
(0 0.025487 0.05)
(0 0.0271125 0.05)
(0 0.0288938 0.05)
(0 0.0308459 0.05)
(0 0.0329852 0.05)
(0 0.0349728 0.05)
(0 0.0367995 0.05)
(0 0.0384781 0.05)
(0 0.0400206 0.05)
(0 0.0414382 0.05)
(0 0.0427409 0.05)
(0 0.043938 0.05)
(0 0.0450381 0.05)
(0 0.0460491 0.05)
(0 0.0469781 0.05)
(0 0.0478319 0.05)
(0 0.0486164 0.05)
(0 0.0493374 0.05)
(0.00416616 0.05 0.05)
(0.00827093 0.05 0.05)
(0.0123152 0.05 0.05)
(0.0162999 0.05 0.05)
(0.0202258 0.05 0.05)
(0.0240939 0.05 0.05)
(0.027905 0.05 0.05)
(0.03166 0.05 0.05)
(0.0353596 0.05 0.05)
(0.0390047 0.05 0.05)
(0.042596 0.05 0.05)
(0.0461345 0.05 0.05)
(0.0496208 0.05 0.05)
(0.0530557 0.05 0.05)
(0.05644 0.05 0.05)
(0.0597744 0.05 0.05)
(0.0630597 0.05 0.05)
(0.0662966 0.05 0.05)
(0.0694858 0.05 0.05)
(0.072628 0.05 0.05)
(0.0757239 0.05 0.05)
(0.0787741 0.05 0.05)
(0.0817794 0.05 0.05)
(0.0847405 0.05 0.05)
(0.0876579 0.05 0.05)
(0.0905322 0.05 0.05)
(0.0933643 0.05 0.05)
(0.0961546 0.05 0.05)
(0.0989038 0.05 0.05)
(0.101612 0.05 0.05)
(0.104281 0.05 0.05)
(0.106911 0.05 0.05)
(0.109501 0.05 0.05)
(0.112054 0.05 0.05)
(0.114569 0.05 0.05)
(0.117046 0.05 0.05)
(0.119488 0.05 0.05)
(0.121893 0.05 0.05)
(0.124263 0.05 0.05)
(0.126598 0.05 0.05)
(0.128899 0.05 0.05)
(0.131165 0.05 0.05)
(0.133398 0.05 0.05)
(0.135599 0.05 0.05)
(0.137767 0.05 0.05)
(0.139903 0.05 0.05)
(0.142007 0.05 0.05)
(0.144081 0.05 0.05)
(0.146124 0.05 0.05)
(0.148136 0.05 0.05)
(0.15012 0.05 0.05)
(0.152073 0.05 0.05)
(0.153999 0.05 0.05)
(0.155895 0.05 0.05)
(0.157764 0.05 0.05)
(0.159605 0.05 0.05)
(0.16142 0.05 0.05)
(0.163207 0.05 0.05)
(0.164968 0.05 0.05)
(0.166703 0.05 0.05)
(0.168413 0.05 0.05)
(0.170097 0.05 0.05)
(0.171757 0.05 0.05)
(0.173392 0.05 0.05)
(0.175003 0.05 0.05)
(0.17659 0.05 0.05)
(0.178154 0.05 0.05)
(0.179695 0.05 0.05)
(0.181213 0.05 0.05)
(0.182708 0.05 0.05)
(0.184182 0.05 0.05)
(0.185634 0.05 0.05)
(0.187065 0.05 0.05)
(0.188474 0.05 0.05)
(0.189863 0.05 0.05)
(0 0.0138277 0.05)
(0 0.0127564 0.05)
(0 0.014899 0.05)
(0.187309 0.0138277 0.05)
(0.188586 0.014899 0.05)
(0 -0.0151254 0.05)
(0 -0.0159703 0.05)
(0 -0.0142805 0.05)
(0 -0.0134356 0.05)
(0 -0.0125907 0.05)
(0 -0.0117458 0.05)
(0 -0.0109009 0.05)
(0 -0.010056 0.05)
(0 -0.00921109 0.05)
(0 -0.00836618 0.05)
(0 -0.00752128 0.05)
(0 -0.00667638 0.05)
(0 -0.00583148 0.05)
(0 -0.00498658 0.05)
(0 -0.00414167 0.05)
(0 -0.00329677 0.05)
(0 -0.00245187 0.05)
(0 -0.00160697 0.05)
(0 -0.000762067 0.05)
(0 8.28349e-05 0.05)
(0 0.000927737 0.05)
(0 0.00177264 0.05)
(0 0.00261754 0.05)
(0 0.00346244 0.05)
(0 0.00430734 0.05)
(0 0.00515225 0.05)
(0 0.00599715 0.05)
(0 0.00684205 0.05)
(0 0.00768695 0.05)
(0 0.00853185 0.05)
(0 0.00937676 0.05)
(0 0.0102217 0.05)
(0 0.0110666 0.05)
(0 0.0119115 0.05)
(0.209428 -0.0151254 0.05)
(0.208719 -0.0142805 0.05)
(0.20801 -0.0134356 0.05)
(0.207301 -0.0125907 0.05)
(0.206592 -0.0117458 0.05)
(0.205883 -0.0109009 0.05)
(0.205174 -0.010056 0.05)
(0.204466 -0.00921109 0.05)
(0.203757 -0.00836618 0.05)
(0.203048 -0.00752128 0.05)
(0.202339 -0.00667638 0.05)
(0.20163 -0.00583148 0.05)
(0.200921 -0.00498658 0.05)
(0.200212 -0.00414167 0.05)
(0.199503 -0.00329677 0.05)
(0.198794 -0.00245187 0.05)
(0.198085 -0.00160697 0.05)
(0.197376 -0.000762067 0.05)
(0.196667 8.28349e-05 0.05)
(0.195958 0.000927737 0.05)
(0.195249 0.00177264 0.05)
(0.19454 0.00261754 0.05)
(0.193831 0.00346244 0.05)
(0.193122 0.00430734 0.05)
(0.192413 0.00515225 0.05)
(0.191704 0.00599715 0.05)
(0.190995 0.00684205 0.05)
(0.190286 0.00768695 0.05)
(0.189577 0.00853185 0.05)
(0.188868 0.00937676 0.05)
(0.188159 0.0102217 0.05)
(0.187451 0.0110666 0.05)
(0.186742 0.0119115 0.05)
(0.00461104 -0.05 0.05)
(0 -0.0492869 0.05)
(0 -0.0485055 0.05)
(0 -0.0476491 0.05)
(0 -0.0467106 0.05)
(0 -0.0456822 0.05)
(0 -0.0445552 0.05)
(0 -0.0433201 0.05)
(0 -0.0419666 0.05)
(0 -0.0404833 0.05)
(0 -0.0388578 0.05)
(0 -0.0370765 0.05)
(0 -0.0351244 0.05)
(0 -0.0329852 0.05)
(0 -0.0309975 0.05)
(0 -0.0291708 0.05)
(0 -0.0274922 0.05)
(0 -0.0259497 0.05)
(0 -0.0245321 0.05)
(0 -0.0232294 0.05)
(0 -0.0220323 0.05)
(0 -0.0209322 0.05)
(0 -0.0199212 0.05)
(0 -0.0189922 0.05)
(0 -0.0181384 0.05)
(0 -0.0173539 0.05)
(0 -0.0166329 0.05)
(0.00915413 -0.05 0.05)
(0.0136303 -0.05 0.05)
(0.0180404 -0.05 0.05)
(0.0223856 -0.05 0.05)
(0.0266668 -0.05 0.05)
(0.0308849 -0.05 0.05)
(0.0350408 -0.05 0.05)
(0.0391354 -0.05 0.05)
(0.0431697 -0.05 0.05)
(0.0471446 -0.05 0.05)
(0.0510609 -0.05 0.05)
(0.0549195 -0.05 0.05)
(0.0587212 -0.05 0.05)
(0.0624669 -0.05 0.05)
(0.0661574 -0.05 0.05)
(0.0697935 -0.05 0.05)
(0.073376 -0.05 0.05)
(0.0769058 -0.05 0.05)
(0.0803835 -0.05 0.05)
(0.08381 -0.05 0.05)
(0.087186 -0.05 0.05)
(0.0905122 -0.05 0.05)
(0.0937894 -0.05 0.05)
(0.0970183 -0.05 0.05)
(0.1002 -0.05 0.05)
(0.103334 -0.05 0.05)
(0.106422 -0.05 0.05)
(0.109465 -0.05 0.05)
(0.112463 -0.05 0.05)
(0.115417 -0.05 0.05)
(0.118327 -0.05 0.05)
(0.121194 -0.05 0.05)
(0.124019 -0.05 0.05)
(0.126803 -0.05 0.05)
(0.129545 -0.05 0.05)
(0.132247 -0.05 0.05)
(0.134909 -0.05 0.05)
(0.137532 -0.05 0.05)
(0.140117 -0.05 0.05)
(0.142663 -0.05 0.05)
(0.145172 -0.05 0.05)
(0.147643 -0.05 0.05)
(0.150079 -0.05 0.05)
(0.152478 -0.05 0.05)
(0.154842 -0.05 0.05)
(0.157171 -0.05 0.05)
(0.159466 -0.05 0.05)
(0.161727 -0.05 0.05)
(0.163955 -0.05 0.05)
(0.16615 -0.05 0.05)
(0.168312 -0.05 0.05)
(0.170443 -0.05 0.05)
(0.172542 -0.05 0.05)
(0.174611 -0.05 0.05)
(0.176649 -0.05 0.05)
(0.178657 -0.05 0.05)
(0.180635 -0.05 0.05)
(0.182584 -0.05 0.05)
(0.184504 -0.05 0.05)
(0.186397 -0.05 0.05)
(0.188261 -0.05 0.05)
(0.190097 -0.05 0.05)
(0.191907 -0.05 0.05)
(0.19369 -0.05 0.05)
(0.195447 -0.05 0.05)
(0.197178 -0.05 0.05)
(0.198883 -0.05 0.05)
(0.200563 -0.05 0.05)
(0.202219 -0.05 0.05)
(0.20385 -0.05 0.05)
(0.205457 -0.05 0.05)
(0.20704 -0.05 0.05)
(0.2086 -0.05 0.05)
(0.210137 -0.05 0.05)
(0.191236 0.05 0.05)
(0.192614 0.05 0.05)
(0.193996 0.05 0.05)
(0.195383 0.05 0.05)
(0.196775 0.05 0.05)
(0.198172 0.05 0.05)
(0.199573 0.05 0.05)
(0.200979 0.05 0.05)
(0.20239 0.05 0.05)
(0.203806 0.05 0.05)
(0.205227 0.05 0.05)
(0.206652 0.05 0.05)
(0.208082 0.05 0.05)
(0.209518 0.05 0.05)
(0.210958 0.05 0.05)
(0.212403 0.05 0.05)
(0.213852 0.05 0.05)
(0.215307 0.05 0.05)
(0.216767 0.05 0.05)
(0.218232 0.05 0.05)
(0.219701 0.05 0.05)
(0.221176 0.05 0.05)
(0.222656 0.05 0.05)
(0.224141 0.05 0.05)
(0.225631 0.05 0.05)
(0.227126 0.05 0.05)
(0.228626 0.05 0.05)
(0.230131 0.05 0.05)
(0.231641 0.05 0.05)
(0.233156 0.05 0.05)
(0.234677 0.05 0.05)
(0.236203 0.05 0.05)
(0.237734 0.05 0.05)
(0.23927 0.05 0.05)
(0.240811 0.05 0.05)
(0.242358 0.05 0.05)
(0.24391 0.05 0.05)
(0.245467 0.05 0.05)
(0.24703 0.05 0.05)
(0.248598 0.05 0.05)
(0.250171 0.05 0.05)
(0.251749 0.05 0.05)
(0.253333 0.05 0.05)
(0.254923 0.05 0.05)
(0.256517 0.05 0.05)
(0.258117 0.05 0.05)
(0.259723 0.05 0.05)
(0.261334 0.05 0.05)
(0.262951 0.05 0.05)
(0.264573 0.05 0.05)
(0.2662 0.05 0.05)
(0.267834 0.05 0.05)
(0.269472 0.05 0.05)
(0.271117 0.05 0.05)
(0.272767 0.05 0.05)
(0.274422 0.05 0.05)
(0.276083 0.05 0.05)
(0.27775 0.05 0.05)
(0.279423 0.05 0.05)
(0.281101 0.05 0.05)
(0.282785 0.05 0.05)
(0.284474 0.05 0.05)
(0.28617 0.05 0.05)
(0.287871 0.05 0.05)
(0.289578 0.05 0.05)
(0.291291 0.05 0.05)
(0.29301 0.05 0.05)
(0.294734 0.05 0.05)
(0.296464 0.05 0.05)
(0.298201 0.05 0.05)
(0.299943 0.05 0.05)
(0.301691 0.05 0.05)
(0.303445 0.05 0.05)
(0.305205 0.05 0.05)
(0.306971 0.05 0.05)
(0.308743 0.05 0.05)
(0.310521 0.05 0.05)
(0.312306 0.05 0.05)
(0.314096 0.05 0.05)
(0.315892 0.05 0.05)
(0.317695 0.05 0.05)
(0.319503 0.05 0.05)
(0.321318 0.05 0.05)
(0.323139 0.05 0.05)
(0.324966 0.05 0.05)
(0.3268 0.05 0.05)
(0.328639 0.05 0.05)
(0.330485 0.05 0.05)
(0.332337 0.05 0.05)
(0.334196 0.05 0.05)
(0.336061 0.05 0.05)
(0.337932 0.05 0.05)
(0.339809 0.05 0.05)
(0.341693 0.05 0.05)
(0.343584 0.05 0.05)
(0.345481 0.05 0.05)
(0.347384 0.05 0.05)
(0.349294 0.05 0.05)
(0.35121 0.05 0.05)
(0.353133 0.05 0.05)
(0.355062 0.05 0.05)
(0.356998 0.05 0.05)
(0.35894 0.05 0.05)
(0.36089 0.05 0.05)
(0.362845 0.05 0.05)
(0.364808 0.05 0.05)
(0.366777 0.05 0.05)
(0.368753 0.05 0.05)
(0.370735 0.05 0.05)
(0.372725 0.05 0.05)
(0.374721 0.05 0.05)
(0.376724 0.05 0.05)
(0.378733 0.05 0.05)
(0.38075 0.05 0.05)
(0.382773 0.05 0.05)
(0.384804 0.05 0.05)
(0.386841 0.05 0.05)
(0.388885 0.05 0.05)
(0.390936 0.05 0.05)
(0.392994 0.05 0.05)
(0.39506 0.05 0.05)
(0.397132 0.05 0.05)
(0.399211 0.05 0.05)
(0.401297 0.05 0.05)
(0.403391 0.05 0.05)
(0.405491 0.05 0.05)
(0.407599 0.05 0.05)
(0.409714 0.05 0.05)
(0.411836 0.05 0.05)
(0.413966 0.05 0.05)
(0.416102 0.05 0.05)
(0.418246 0.05 0.05)
(0.420397 0.05 0.05)
(0.422556 0.05 0.05)
(0.424722 0.05 0.05)
(0.426895 0.05 0.05)
(0.429076 0.05 0.05)
(0.431264 0.05 0.05)
(0.433459 0.05 0.05)
(0.435662 0.05 0.05)
(0.437873 0.05 0.05)
(0.440091 0.05 0.05)
(0.442317 0.05 0.05)
(0.44455 0.05 0.05)
(0.446791 0.05 0.05)
(0.449039 0.05 0.05)
(0.451295 0.05 0.05)
(0.453559 0.05 0.05)
(0.45583 0.05 0.05)
(0.45811 0.05 0.05)
(0.460397 0.05 0.05)
(0.462691 0.05 0.05)
(0.464994 0.05 0.05)
(0.467305 0.05 0.05)
(0.469623 0.05 0.05)
(0.471949 0.05 0.05)
(0.474283 0.05 0.05)
(0.476625 0.05 0.05)
(0.478976 0.05 0.05)
(0.481334 0.05 0.05)
(0.4837 0.05 0.05)
(0.486074 0.05 0.05)
(0.488456 0.05 0.05)
(0.490847 0.05 0.05)
(0.493245 0.05 0.05)
(0.495652 0.05 0.05)
(0.498067 0.05 0.05)
(0.50049 0.05 0.05)
(0.502921 0.05 0.05)
(0.505361 0.05 0.05)
(0.507809 0.05 0.05)
(0.510265 0.05 0.05)
(0.51273 0.05 0.05)
(0.515203 0.05 0.05)
(0.517685 0.05 0.05)
(0.520175 0.05 0.05)
(0.522673 0.05 0.05)
(0.52518 0.05 0.05)
(0.527696 0.05 0.05)
(0.53022 0.05 0.05)
(0.532753 0.05 0.05)
(0.535294 0.05 0.05)
(0.537844 0.05 0.05)
(0.540403 0.05 0.05)
(0.54297 0.05 0.05)
(0.545546 0.05 0.05)
(0.548131 0.05 0.05)
(0.550725 0.05 0.05)
(0.553327 0.05 0.05)
(0.555939 0.05 0.05)
(0.558559 0.05 0.05)
(0.561188 0.05 0.05)
(0.563827 0.05 0.05)
(0.566474 0.05 0.05)
(0.56913 0.05 0.05)
(0.571795 0.05 0.05)
(0.57447 0.05 0.05)
(0.577153 0.05 0.05)
(0.579846 0.05 0.05)
(0.582547 0.05 0.05)
(0.585258 0.05 0.05)
(0.587979 0.05 0.05)
(0.590708 0.05 0.05)
(0.593447 0.05 0.05)
(0.596195 0.05 0.05)
(0.598952 0.05 0.05)
(0.601719 0.05 0.05)
(0.604496 0.05 0.05)
(0.607281 0.05 0.05)
(0.610077 0.05 0.05)
(0.612881 0.05 0.05)
(0.615696 0.05 0.05)
(0.61852 0.05 0.05)
(0.621353 0.05 0.05)
(0.624196 0.05 0.05)
(0.627049 0.05 0.05)
(0.629912 0.05 0.05)
(0.632784 0.05 0.05)
(0.635666 0.05 0.05)
(0.638558 0.05 0.05)
(0.64146 0.05 0.05)
(0.644372 0.05 0.05)
(0.647293 0.05 0.05)
(0.650225 0.05 0.05)
(0.653167 0.05 0.05)
(0.656118 0.05 0.05)
(0.65908 0.05 0.05)
(0.662052 0.05 0.05)
(0.665033 0.05 0.05)
(0.668025 0.05 0.05)
(0.671028 0.05 0.05)
(0.67404 0.05 0.05)
(0.677063 0.05 0.05)
(0.680096 0.05 0.05)
(0.683139 0.05 0.05)
(0.686193 0.05 0.05)
(0.689257 0.05 0.05)
(0.692332 0.05 0.05)
(0.695417 0.05 0.05)
(0.698512 0.05 0.05)
(0.701618 0.05 0.05)
(0.704735 0.05 0.05)
(0.707862 0.05 0.05)
(0.711 0.05 0.05)
(0.714149 0.05 0.05)
(0.717308 0.05 0.05)
(0.720478 0.05 0.05)
(0.723659 0.05 0.05)
(0.726851 0.05 0.05)
(0.730053 0.05 0.05)
(0.733267 0.05 0.05)
(0.736492 0.05 0.05)
(0.739727 0.05 0.05)
(0.742973 0.05 0.05)
(0.746231 0.05 0.05)
(0.7495 0.05 0.05)
(0.75278 0.05 0.05)
(0.75607 0.05 0.05)
(0.759373 0.05 0.05)
(0.762686 0.05 0.05)
(0.766011 0.05 0.05)
(0.769347 0.05 0.05)
(0.772694 0.05 0.05)
(0.776053 0.05 0.05)
(0.779423 0.05 0.05)
(0.782805 0.05 0.05)
(0.786198 0.05 0.05)
(0.789603 0.05 0.05)
(0.79302 0.05 0.05)
(0.796448 0.05 0.05)
(0.799888 0.05 0.05)
(0.803339 0.05 0.05)
(0.806802 0.05 0.05)
(0.810277 0.05 0.05)
(0.813764 0.05 0.05)
(0.817263 0.05 0.05)
(0.820774 0.05 0.05)
(0.824296 0.05 0.05)
(0.827831 0.05 0.05)
(0.831378 0.05 0.05)
(0.834936 0.05 0.05)
(0.838507 0.05 0.05)
(0.84209 0.05 0.05)
(0.845685 0.05 0.05)
(0.849293 0.05 0.05)
(0.852913 0.05 0.05)
(0.856545 0.05 0.05)
(0.860189 0.05 0.05)
(0.863846 0.05 0.05)
(0.867516 0.05 0.05)
(0.871198 0.05 0.05)
(0.874892 0.05 0.05)
(0.878599 0.05 0.05)
(0.882319 0.05 0.05)
(0.886051 0.05 0.05)
(0.889796 0.05 0.05)
(0.893554 0.05 0.05)
(0.897324 0.05 0.05)
(0.901108 0.05 0.05)
(0.904904 0.05 0.05)
(0.908714 0.05 0.05)
(0.912536 0.05 0.05)
(0.916371 0.05 0.05)
(0.920219 0.05 0.05)
(0.924081 0.05 0.05)
(0.927955 0.05 0.05)
(0.931843 0.05 0.05)
(0.935744 0.05 0.05)
(0.939659 0.05 0.05)
(0.943586 0.05 0.05)
(0.947527 0.05 0.05)
(0.951482 0.05 0.05)
(0.95545 0.05 0.05)
(0.959431 0.05 0.05)
(0.963426 0.05 0.05)
(0.967435 0.05 0.05)
(0.971457 0.05 0.05)
(0.975493 0.05 0.05)
(0.979543 0.05 0.05)
(0.983607 0.05 0.05)
(0.987684 0.05 0.05)
(0.991776 0.05 0.05)
(0.995881 0.05 0.05)
(1 0.0159703 0.05)
(1 0.0166834 0.05)
(1 0.0174648 0.05)
(1 0.0183212 0.05)
(1 0.0192597 0.05)
(1 0.0202881 0.05)
(1 0.0214152 0.05)
(1 0.0226502 0.05)
(1 0.0240038 0.05)
(1 0.025487 0.05)
(1 0.0271125 0.05)
(1 0.0288938 0.05)
(1 0.0308459 0.05)
(1 0.0329852 0.05)
(1 0.0349728 0.05)
(1 0.0367995 0.05)
(1 0.0384781 0.05)
(1 0.0400206 0.05)
(1 0.0414382 0.05)
(1 0.0427409 0.05)
(1 0.043938 0.05)
(1 0.0450381 0.05)
(1 0.0460491 0.05)
(1 0.0469781 0.05)
(1 0.0478319 0.05)
(1 0.0486164 0.05)
(1 0.0493374 0.05)
(0.213258 -0.0119115 0.05)
(0.212549 -0.0110666 0.05)
(0.211841 -0.0102217 0.05)
(0.211132 -0.00937676 0.05)
(0.210423 -0.00853185 0.05)
(0.209714 -0.00768695 0.05)
(0.209005 -0.00684205 0.05)
(0.208296 -0.00599715 0.05)
(0.207587 -0.00515225 0.05)
(0.206878 -0.00430734 0.05)
(0.206169 -0.00346244 0.05)
(0.20546 -0.00261754 0.05)
(0.204751 -0.00177264 0.05)
(0.204042 -0.000927737 0.05)
(0.203333 -8.28349e-05 0.05)
(0.202624 0.000762067 0.05)
(0.201915 0.00160697 0.05)
(0.201206 0.00245187 0.05)
(0.200497 0.00329677 0.05)
(0.199788 0.00414167 0.05)
(0.199079 0.00498658 0.05)
(0.19837 0.00583148 0.05)
(0.197661 0.00667638 0.05)
(0.196952 0.00752128 0.05)
(0.196243 0.00836618 0.05)
(0.195534 0.00921109 0.05)
(0.194826 0.010056 0.05)
(0.194117 0.0109009 0.05)
(0.193408 0.0117458 0.05)
(0.192699 0.0125907 0.05)
(0.19199 0.0134356 0.05)
(0.191281 0.0142805 0.05)
(0.190572 0.0151254 0.05)
(1 -0.0127564 0.05)
(1 -0.0119115 0.05)
(1 -0.0110666 0.05)
(1 -0.0102217 0.05)
(1 -0.00937676 0.05)
(1 -0.00853185 0.05)
(1 -0.00768695 0.05)
(1 -0.00684205 0.05)
(1 -0.00599715 0.05)
(1 -0.00515225 0.05)
(1 -0.00430734 0.05)
(1 -0.00346244 0.05)
(1 -0.00261754 0.05)
(1 -0.00177264 0.05)
(1 -0.000927737 0.05)
(1 -8.28349e-05 0.05)
(1 0.000762067 0.05)
(1 0.00160697 0.05)
(1 0.00245187 0.05)
(1 0.00329677 0.05)
(1 0.00414167 0.05)
(1 0.00498658 0.05)
(1 0.00583148 0.05)
(1 0.00667638 0.05)
(1 0.00752128 0.05)
(1 0.00836618 0.05)
(1 0.00921109 0.05)
(1 0.010056 0.05)
(1 0.0109009 0.05)
(1 0.0117458 0.05)
(1 0.0125907 0.05)
(1 0.0134356 0.05)
(1 0.0142805 0.05)
(1 0.0151254 0.05)
(0.211414 -0.014899 0.05)
(0.212691 -0.0138277 0.05)
(1 -0.0159703 0.05)
(1 -0.014899 0.05)
(1 -0.0138277 0.05)
(0.211476 -0.05 0.05)
(0.212819 -0.05 0.05)
(0.214167 -0.05 0.05)
(0.215519 -0.05 0.05)
(0.216877 -0.05 0.05)
(0.218238 -0.05 0.05)
(0.219604 -0.05 0.05)
(0.220975 -0.05 0.05)
(0.222351 -0.05 0.05)
(0.223731 -0.05 0.05)
(0.225116 -0.05 0.05)
(0.226506 -0.05 0.05)
(0.227901 -0.05 0.05)
(0.2293 -0.05 0.05)
(0.230704 -0.05 0.05)
(0.232113 -0.05 0.05)
(0.233526 -0.05 0.05)
(0.234945 -0.05 0.05)
(0.236368 -0.05 0.05)
(0.237796 -0.05 0.05)
(0.239229 -0.05 0.05)
(0.240667 -0.05 0.05)
(0.24211 -0.05 0.05)
(0.243557 -0.05 0.05)
(0.24501 -0.05 0.05)
(0.246467 -0.05 0.05)
(0.24793 -0.05 0.05)
(0.249397 -0.05 0.05)
(0.25087 -0.05 0.05)
(0.252347 -0.05 0.05)
(0.25383 -0.05 0.05)
(0.255317 -0.05 0.05)
(0.25681 -0.05 0.05)
(0.258308 -0.05 0.05)
(0.259811 -0.05 0.05)
(0.261319 -0.05 0.05)
(0.262832 -0.05 0.05)
(0.26435 -0.05 0.05)
(0.265873 -0.05 0.05)
(0.267402 -0.05 0.05)
(0.268936 -0.05 0.05)
(0.270475 -0.05 0.05)
(0.272019 -0.05 0.05)
(0.273569 -0.05 0.05)
(0.275124 -0.05 0.05)
(0.276684 -0.05 0.05)
(0.278249 -0.05 0.05)
(0.27982 -0.05 0.05)
(0.281396 -0.05 0.05)
(0.282977 -0.05 0.05)
(0.284564 -0.05 0.05)
(0.286157 -0.05 0.05)
(0.287754 -0.05 0.05)
(0.289358 -0.05 0.05)
(0.290966 -0.05 0.05)
(0.29258 -0.05 0.05)
(0.2942 -0.05 0.05)
(0.295825 -0.05 0.05)
(0.297456 -0.05 0.05)
(0.299092 -0.05 0.05)
(0.300734 -0.05 0.05)
(0.302381 -0.05 0.05)
(0.304034 -0.05 0.05)
(0.305693 -0.05 0.05)
(0.307357 -0.05 0.05)
(0.309027 -0.05 0.05)
(0.310703 -0.05 0.05)
(0.312384 -0.05 0.05)
(0.314071 -0.05 0.05)
(0.315764 -0.05 0.05)
(0.317462 -0.05 0.05)
(0.319167 -0.05 0.05)
(0.320877 -0.05 0.05)
(0.322593 -0.05 0.05)
(0.324315 -0.05 0.05)
(0.326043 -0.05 0.05)
(0.327776 -0.05 0.05)
(0.329516 -0.05 0.05)
(0.331261 -0.05 0.05)
(0.333013 -0.05 0.05)
(0.33477 -0.05 0.05)
(0.336533 -0.05 0.05)
(0.338303 -0.05 0.05)
(0.340078 -0.05 0.05)
(0.341859 -0.05 0.05)
(0.343647 -0.05 0.05)
(0.345441 -0.05 0.05)
(0.34724 -0.05 0.05)
(0.349046 -0.05 0.05)
(0.350858 -0.05 0.05)
(0.352676 -0.05 0.05)
(0.354501 -0.05 0.05)
(0.356331 -0.05 0.05)
(0.358168 -0.05 0.05)
(0.360011 -0.05 0.05)
(0.36186 -0.05 0.05)
(0.363716 -0.05 0.05)
(0.365578 -0.05 0.05)
(0.367446 -0.05 0.05)
(0.369321 -0.05 0.05)
(0.371202 -0.05 0.05)
(0.37309 -0.05 0.05)
(0.374983 -0.05 0.05)
(0.376884 -0.05 0.05)
(0.378791 -0.05 0.05)
(0.380704 -0.05 0.05)
(0.382624 -0.05 0.05)
(0.38455 -0.05 0.05)
(0.386483 -0.05 0.05)
(0.388423 -0.05 0.05)
(0.390369 -0.05 0.05)
(0.392322 -0.05 0.05)
(0.394281 -0.05 0.05)
(0.396247 -0.05 0.05)
(0.39822 -0.05 0.05)
(0.400199 -0.05 0.05)
(0.402186 -0.05 0.05)
(0.404179 -0.05 0.05)
(0.406179 -0.05 0.05)
(0.408185 -0.05 0.05)
(0.410199 -0.05 0.05)
(0.412219 -0.05 0.05)
(0.414246 -0.05 0.05)
(0.41628 -0.05 0.05)
(0.418321 -0.05 0.05)
(0.42037 -0.05 0.05)
(0.422425 -0.05 0.05)
(0.424486 -0.05 0.05)
(0.426556 -0.05 0.05)
(0.428632 -0.05 0.05)
(0.430715 -0.05 0.05)
(0.432805 -0.05 0.05)
(0.434902 -0.05 0.05)
(0.437007 -0.05 0.05)
(0.439119 -0.05 0.05)
(0.441237 -0.05 0.05)
(0.443363 -0.05 0.05)
(0.445497 -0.05 0.05)
(0.447637 -0.05 0.05)
(0.449785 -0.05 0.05)
(0.451941 -0.05 0.05)
(0.454103 -0.05 0.05)
(0.456273 -0.05 0.05)
(0.45845 -0.05 0.05)
(0.460635 -0.05 0.05)
(0.462827 -0.05 0.05)
(0.465027 -0.05 0.05)
(0.467234 -0.05 0.05)
(0.469449 -0.05 0.05)
(0.471671 -0.05 0.05)
(0.473901 -0.05 0.05)
(0.476138 -0.05 0.05)
(0.478383 -0.05 0.05)
(0.480636 -0.05 0.05)
(0.482896 -0.05 0.05)
(0.485164 -0.05 0.05)
(0.48744 -0.05 0.05)
(0.489723 -0.05 0.05)
(0.492015 -0.05 0.05)
(0.494314 -0.05 0.05)
(0.496621 -0.05 0.05)
(0.498935 -0.05 0.05)
(0.501258 -0.05 0.05)
(0.503589 -0.05 0.05)
(0.505927 -0.05 0.05)
(0.508274 -0.05 0.05)
(0.510628 -0.05 0.05)
(0.512991 -0.05 0.05)
(0.515361 -0.05 0.05)
(0.51774 -0.05 0.05)
(0.520127 -0.05 0.05)
(0.522521 -0.05 0.05)
(0.524924 -0.05 0.05)
(0.527336 -0.05 0.05)
(0.529755 -0.05 0.05)
(0.532183 -0.05 0.05)
(0.534619 -0.05 0.05)
(0.537063 -0.05 0.05)
(0.539516 -0.05 0.05)
(0.541977 -0.05 0.05)
(0.544446 -0.05 0.05)
(0.546924 -0.05 0.05)
(0.54941 -0.05 0.05)
(0.551904 -0.05 0.05)
(0.554408 -0.05 0.05)
(0.556919 -0.05 0.05)
(0.559439 -0.05 0.05)
(0.561968 -0.05 0.05)
(0.564506 -0.05 0.05)
(0.567052 -0.05 0.05)
(0.569606 -0.05 0.05)
(0.57217 -0.05 0.05)
(0.574742 -0.05 0.05)
(0.577323 -0.05 0.05)
(0.579913 -0.05 0.05)
(0.582511 -0.05 0.05)
(0.585119 -0.05 0.05)
(0.587735 -0.05 0.05)
(0.59036 -0.05 0.05)
(0.592994 -0.05 0.05)
(0.595638 -0.05 0.05)
(0.59829 -0.05 0.05)
(0.600951 -0.05 0.05)
(0.603621 -0.05 0.05)
(0.606301 -0.05 0.05)
(0.608989 -0.05 0.05)
(0.611687 -0.05 0.05)
(0.614393 -0.05 0.05)
(0.617109 -0.05 0.05)
(0.619835 -0.05 0.05)
(0.622569 -0.05 0.05)
(0.625313 -0.05 0.05)
(0.628067 -0.05 0.05)
(0.630829 -0.05 0.05)
(0.633601 -0.05 0.05)
(0.636383 -0.05 0.05)
(0.639174 -0.05 0.05)
(0.641974 -0.05 0.05)
(0.644784 -0.05 0.05)
(0.647604 -0.05 0.05)
(0.650433 -0.05 0.05)
(0.653272 -0.05 0.05)
(0.65612 -0.05 0.05)
(0.658978 -0.05 0.05)
(0.661846 -0.05 0.05)
(0.664724 -0.05 0.05)
(0.667612 -0.05 0.05)
(0.670509 -0.05 0.05)
(0.673416 -0.05 0.05)
(0.676333 -0.05 0.05)
(0.67926 -0.05 0.05)
(0.682198 -0.05 0.05)
(0.685145 -0.05 0.05)
(0.688102 -0.05 0.05)
(0.691069 -0.05 0.05)
(0.694046 -0.05 0.05)
(0.697034 -0.05 0.05)
(0.700031 -0.05 0.05)
(0.703039 -0.05 0.05)
(0.706057 -0.05 0.05)
(0.709085 -0.05 0.05)
(0.712124 -0.05 0.05)
(0.715173 -0.05 0.05)
(0.718232 -0.05 0.05)
(0.721302 -0.05 0.05)
(0.724383 -0.05 0.05)
(0.727473 -0.05 0.05)
(0.730575 -0.05 0.05)
(0.733687 -0.05 0.05)
(0.736809 -0.05 0.05)
(0.739942 -0.05 0.05)
(0.743086 -0.05 0.05)
(0.746241 -0.05 0.05)
(0.749406 -0.05 0.05)
(0.752582 -0.05 0.05)
(0.755769 -0.05 0.05)
(0.758966 -0.05 0.05)
(0.762175 -0.05 0.05)
(0.765395 -0.05 0.05)
(0.768625 -0.05 0.05)
(0.771867 -0.05 0.05)
(0.775119 -0.05 0.05)
(0.778383 -0.05 0.05)
(0.781658 -0.05 0.05)
(0.784944 -0.05 0.05)
(0.788241 -0.05 0.05)
(0.791549 -0.05 0.05)
(0.794869 -0.05 0.05)
(0.7982 -0.05 0.05)
(0.801542 -0.05 0.05)
(0.804895 -0.05 0.05)
(0.808261 -0.05 0.05)
(0.811637 -0.05 0.05)
(0.815025 -0.05 0.05)
(0.818425 -0.05 0.05)
(0.821836 -0.05 0.05)
(0.825259 -0.05 0.05)
(0.828693 -0.05 0.05)
(0.832139 -0.05 0.05)
(0.835597 -0.05 0.05)
(0.839067 -0.05 0.05)
(0.842549 -0.05 0.05)
(0.846042 -0.05 0.05)
(0.849547 -0.05 0.05)
(0.853065 -0.05 0.05)
(0.856594 -0.05 0.05)
(0.860135 -0.05 0.05)
(0.863688 -0.05 0.05)
(0.867254 -0.05 0.05)
(0.870831 -0.05 0.05)
(0.874421 -0.05 0.05)
(0.878023 -0.05 0.05)
(0.881637 -0.05 0.05)
(0.885264 -0.05 0.05)
(0.888903 -0.05 0.05)
(0.892554 -0.05 0.05)
(0.896218 -0.05 0.05)
(0.899894 -0.05 0.05)
(0.903583 -0.05 0.05)
(0.907284 -0.05 0.05)
(0.910998 -0.05 0.05)
(0.914725 -0.05 0.05)
(0.918464 -0.05 0.05)
(0.922216 -0.05 0.05)
(0.925981 -0.05 0.05)
(0.929758 -0.05 0.05)
(0.933549 -0.05 0.05)
(0.937352 -0.05 0.05)
(0.941169 -0.05 0.05)
(0.944998 -0.05 0.05)
(0.948841 -0.05 0.05)
(0.952696 -0.05 0.05)
(0.956565 -0.05 0.05)
(0.960447 -0.05 0.05)
(0.964342 -0.05 0.05)
(0.96825 -0.05 0.05)
(0.972172 -0.05 0.05)
(0.976107 -0.05 0.05)
(0.980055 -0.05 0.05)
(0.984017 -0.05 0.05)
(0.987992 -0.05 0.05)
(0.991981 -0.05 0.05)
(0.995984 -0.05 0.05)
(1 -0.0492869 0.05)
(1 -0.0485055 0.05)
(1 -0.0476491 0.05)
(1 -0.0467106 0.05)
(1 -0.0456822 0.05)
(1 -0.0445552 0.05)
(1 -0.0433201 0.05)
(1 -0.0419666 0.05)
(1 -0.0404833 0.05)
(1 -0.0388578 0.05)
(1 -0.0370765 0.05)
(1 -0.0351244 0.05)
(1 -0.0329852 0.05)
(1 -0.0309975 0.05)
(1 -0.0291708 0.05)
(1 -0.0274922 0.05)
(1 -0.0259497 0.05)
(1 -0.0245321 0.05)
(1 -0.0232294 0.05)
(1 -0.0220323 0.05)
(1 -0.0209322 0.05)
(1 -0.0199212 0.05)
(1 -0.0189922 0.05)
(1 -0.0181384 0.05)
(1 -0.0173539 0.05)
(1 -0.0166329 0.05)
(0 -0.0492869 -0.05)
(0.00461104 -0.05 -0.05)
(0 -0.0485055 -0.05)
(0 -0.0476491 -0.05)
(0 -0.0467106 -0.05)
(0 -0.0456822 -0.05)
(0 -0.0445552 -0.05)
(0 -0.0433201 -0.05)
(0 -0.0419666 -0.05)
(0 -0.0404833 -0.05)
(0 -0.0388578 -0.05)
(0 -0.0370765 -0.05)
(0 -0.0351244 -0.05)
(0 -0.0329852 -0.05)
(0 -0.0309975 -0.05)
(0 -0.0291708 -0.05)
(0 -0.0274922 -0.05)
(0 -0.0259497 -0.05)
(0 -0.0245321 -0.05)
(0 -0.0232294 -0.05)
(0 -0.0220323 -0.05)
(0 -0.0209322 -0.05)
(0 -0.0199212 -0.05)
(0 -0.0189922 -0.05)
(0 -0.0181384 -0.05)
(0 -0.0173539 -0.05)
(0 -0.0166329 -0.05)
(0 -0.0159703 -0.05)
(0.00915413 -0.05 -0.05)
(0.0136303 -0.05 -0.05)
(0.0180404 -0.05 -0.05)
(0.0223856 -0.05 -0.05)
(0.0266668 -0.05 -0.05)
(0.0308849 -0.05 -0.05)
(0.0350408 -0.05 -0.05)
(0.0391354 -0.05 -0.05)
(0.0431697 -0.05 -0.05)
(0.0471446 -0.05 -0.05)
(0.0510609 -0.05 -0.05)
(0.0549195 -0.05 -0.05)
(0.0587212 -0.05 -0.05)
(0.0624669 -0.05 -0.05)
(0.0661574 -0.05 -0.05)
(0.0697935 -0.05 -0.05)
(0.073376 -0.05 -0.05)
(0.0769058 -0.05 -0.05)
(0.0803835 -0.05 -0.05)
(0.08381 -0.05 -0.05)
(0.087186 -0.05 -0.05)
(0.0905122 -0.05 -0.05)
(0.0937894 -0.05 -0.05)
(0.0970183 -0.05 -0.05)
(0.1002 -0.05 -0.05)
(0.103334 -0.05 -0.05)
(0.106422 -0.05 -0.05)
(0.109465 -0.05 -0.05)
(0.112463 -0.05 -0.05)
(0.115417 -0.05 -0.05)
(0.118327 -0.05 -0.05)
(0.121194 -0.05 -0.05)
(0.124019 -0.05 -0.05)
(0.126803 -0.05 -0.05)
(0.129545 -0.05 -0.05)
(0.132247 -0.05 -0.05)
(0.134909 -0.05 -0.05)
(0.137532 -0.05 -0.05)
(0.140117 -0.05 -0.05)
(0.142663 -0.05 -0.05)
(0.145172 -0.05 -0.05)
(0.147643 -0.05 -0.05)
(0.150079 -0.05 -0.05)
(0.152478 -0.05 -0.05)
(0.154842 -0.05 -0.05)
(0.157171 -0.05 -0.05)
(0.159466 -0.05 -0.05)
(0.161727 -0.05 -0.05)
(0.163955 -0.05 -0.05)
(0.16615 -0.05 -0.05)
(0.168312 -0.05 -0.05)
(0.170443 -0.05 -0.05)
(0.172542 -0.05 -0.05)
(0.174611 -0.05 -0.05)
(0.176649 -0.05 -0.05)
(0.178657 -0.05 -0.05)
(0.180635 -0.05 -0.05)
(0.182584 -0.05 -0.05)
(0.184504 -0.05 -0.05)
(0.186397 -0.05 -0.05)
(0.188261 -0.05 -0.05)
(0.190097 -0.05 -0.05)
(0.191907 -0.05 -0.05)
(0.19369 -0.05 -0.05)
(0.195447 -0.05 -0.05)
(0.197178 -0.05 -0.05)
(0.198883 -0.05 -0.05)
(0.200563 -0.05 -0.05)
(0.202219 -0.05 -0.05)
(0.20385 -0.05 -0.05)
(0.205457 -0.05 -0.05)
(0.20704 -0.05 -0.05)
(0.2086 -0.05 -0.05)
(0.210137 -0.05 -0.05)
(0 -0.0151254 -0.05)
(0 -0.0142805 -0.05)
(0 -0.0134356 -0.05)
(0 -0.0125907 -0.05)
(0 -0.0117458 -0.05)
(0 -0.0109009 -0.05)
(0 -0.010056 -0.05)
(0 -0.00921109 -0.05)
(0 -0.00836618 -0.05)
(0 -0.00752128 -0.05)
(0 -0.00667638 -0.05)
(0 -0.00583148 -0.05)
(0 -0.00498658 -0.05)
(0 -0.00414167 -0.05)
(0 -0.00329677 -0.05)
(0 -0.00245187 -0.05)
(0 -0.00160697 -0.05)
(0 -0.000762067 -0.05)
(0 8.28349e-05 -0.05)
(0 0.000927737 -0.05)
(0 0.00177264 -0.05)
(0 0.00261754 -0.05)
(0 0.00346244 -0.05)
(0 0.00430734 -0.05)
(0 0.00515225 -0.05)
(0 0.00599715 -0.05)
(0 0.00684205 -0.05)
(0 0.00768695 -0.05)
(0 0.00853185 -0.05)
(0 0.00937676 -0.05)
(0 0.0102217 -0.05)
(0 0.0110666 -0.05)
(0 0.0119115 -0.05)
(0 0.0127564 -0.05)
(0.209428 -0.0151254 -0.05)
(0.208719 -0.0142805 -0.05)
(0.20801 -0.0134356 -0.05)
(0.207301 -0.0125907 -0.05)
(0.206592 -0.0117458 -0.05)
(0.205883 -0.0109009 -0.05)
(0.205174 -0.010056 -0.05)
(0.204466 -0.00921109 -0.05)
(0.203757 -0.00836618 -0.05)
(0.203048 -0.00752128 -0.05)
(0.202339 -0.00667638 -0.05)
(0.20163 -0.00583148 -0.05)
(0.200921 -0.00498658 -0.05)
(0.200212 -0.00414167 -0.05)
(0.199503 -0.00329677 -0.05)
(0.198794 -0.00245187 -0.05)
(0.198085 -0.00160697 -0.05)
(0.197376 -0.000762067 -0.05)
(0.196667 8.28349e-05 -0.05)
(0.195958 0.000927737 -0.05)
(0.195249 0.00177264 -0.05)
(0.19454 0.00261754 -0.05)
(0.193831 0.00346244 -0.05)
(0.193122 0.00430734 -0.05)
(0.192413 0.00515225 -0.05)
(0.191704 0.00599715 -0.05)
(0.190995 0.00684205 -0.05)
(0.190286 0.00768695 -0.05)
(0.189577 0.00853185 -0.05)
(0.188868 0.00937676 -0.05)
(0.188159 0.0102217 -0.05)
(0.187451 0.0110666 -0.05)
(0.186742 0.0119115 -0.05)
(0 0.0138277 -0.05)
(0 0.014899 -0.05)
(0 0.0159703 -0.05)
(0.187309 0.0138277 -0.05)
(0.188586 0.014899 -0.05)
(0 0.0166834 -0.05)
(0 0.0174648 -0.05)
(0 0.0183212 -0.05)
(0 0.0192597 -0.05)
(0 0.0202881 -0.05)
(0 0.0214152 -0.05)
(0 0.0226502 -0.05)
(0 0.0240038 -0.05)
(0 0.025487 -0.05)
(0 0.0271125 -0.05)
(0 0.0288938 -0.05)
(0 0.0308459 -0.05)
(0 0.0329852 -0.05)
(0 0.0349728 -0.05)
(0 0.0367995 -0.05)
(0 0.0384781 -0.05)
(0 0.0400206 -0.05)
(0 0.0414382 -0.05)
(0 0.0427409 -0.05)
(0 0.043938 -0.05)
(0 0.0450381 -0.05)
(0 0.0460491 -0.05)
(0 0.0469781 -0.05)
(0 0.0478319 -0.05)
(0 0.0486164 -0.05)
(0 0.0493374 -0.05)
(0.00416616 0.05 -0.05)
(0.00827093 0.05 -0.05)
(0.0123152 0.05 -0.05)
(0.0162999 0.05 -0.05)
(0.0202258 0.05 -0.05)
(0.0240939 0.05 -0.05)
(0.027905 0.05 -0.05)
(0.03166 0.05 -0.05)
(0.0353596 0.05 -0.05)
(0.0390047 0.05 -0.05)
(0.042596 0.05 -0.05)
(0.0461345 0.05 -0.05)
(0.0496208 0.05 -0.05)
(0.0530557 0.05 -0.05)
(0.05644 0.05 -0.05)
(0.0597744 0.05 -0.05)
(0.0630597 0.05 -0.05)
(0.0662966 0.05 -0.05)
(0.0694858 0.05 -0.05)
(0.072628 0.05 -0.05)
(0.0757239 0.05 -0.05)
(0.0787741 0.05 -0.05)
(0.0817794 0.05 -0.05)
(0.0847405 0.05 -0.05)
(0.0876579 0.05 -0.05)
(0.0905322 0.05 -0.05)
(0.0933643 0.05 -0.05)
(0.0961546 0.05 -0.05)
(0.0989038 0.05 -0.05)
(0.101612 0.05 -0.05)
(0.104281 0.05 -0.05)
(0.106911 0.05 -0.05)
(0.109501 0.05 -0.05)
(0.112054 0.05 -0.05)
(0.114569 0.05 -0.05)
(0.117046 0.05 -0.05)
(0.119488 0.05 -0.05)
(0.121893 0.05 -0.05)
(0.124263 0.05 -0.05)
(0.126598 0.05 -0.05)
(0.128899 0.05 -0.05)
(0.131165 0.05 -0.05)
(0.133398 0.05 -0.05)
(0.135599 0.05 -0.05)
(0.137767 0.05 -0.05)
(0.139903 0.05 -0.05)
(0.142007 0.05 -0.05)
(0.144081 0.05 -0.05)
(0.146124 0.05 -0.05)
(0.148136 0.05 -0.05)
(0.15012 0.05 -0.05)
(0.152073 0.05 -0.05)
(0.153999 0.05 -0.05)
(0.155895 0.05 -0.05)
(0.157764 0.05 -0.05)
(0.159605 0.05 -0.05)
(0.16142 0.05 -0.05)
(0.163207 0.05 -0.05)
(0.164968 0.05 -0.05)
(0.166703 0.05 -0.05)
(0.168413 0.05 -0.05)
(0.170097 0.05 -0.05)
(0.171757 0.05 -0.05)
(0.173392 0.05 -0.05)
(0.175003 0.05 -0.05)
(0.17659 0.05 -0.05)
(0.178154 0.05 -0.05)
(0.179695 0.05 -0.05)
(0.181213 0.05 -0.05)
(0.182708 0.05 -0.05)
(0.184182 0.05 -0.05)
(0.185634 0.05 -0.05)
(0.187065 0.05 -0.05)
(0.188474 0.05 -0.05)
(0.189863 0.05 -0.05)
(0.211476 -0.05 -0.05)
(0.212819 -0.05 -0.05)
(0.214167 -0.05 -0.05)
(0.215519 -0.05 -0.05)
(0.216877 -0.05 -0.05)
(0.218238 -0.05 -0.05)
(0.219604 -0.05 -0.05)
(0.220975 -0.05 -0.05)