/*--------------------------------*- C++ -*----------------------------------*\
  =========                 |
  \\      /  F ield         | OpenFOAM: The Open Source CFD Toolbox
   \\    /   O peration     | Website:  https://openfoam.org
    \\  /    A nd           | Version:  7
     \\/     M anipulation  |
\*---------------------------------------------------------------------------*/
FoamFile
{
    version     2.0;
    format      ascii;
    class       extendedFeatureEdgeMesh;
    location    "constant/extendedFeatureEdgeMesh";
    object      geometry.extendedFeatureEdgeMesh;
}
// * * * * * * * * * * * * * * * * * * * * * * * * * * * * * * * * * * * * * //

// points

2148
(
(0 0.05 0.05)
(0 -0.05 0.05)
(1 0.05 0.05)
(1 -0.05 0.05)
(0 -0.05 -0.05)
(0 0.05 -0.05)
(1 -0.05 -0.05)
(1 0.05 -0.05)
(0.199206 0.0188993 0.05)
(0.194282 0.018031 0.05)
(0.200794 -0.0188993 0.05)
(0.205718 -0.018031 0.05)
(0.200794 -0.0188993 -0.05)
(0.194282 0.018031 -0.05)
(0.199206 0.0188993 -0.05)
(0.205718 -0.018031 -0.05)
(0 0.0196048 0.05)
(0 0.0188993 0.05)
(0 0.0203843 0.05)
(0 0.0212458 0.05)
(0 0.0221978 0.05)
(0 0.0232497 0.05)
(0 0.0244121 0.05)
(0 0.0256966 0.05)
(0 0.0271161 0.05)
(0 0.0286846 0.05)
(0 0.0304179 0.05)
(0 0.0323332 0.05)
(0 0.0344496 0.05)
(0 0.0365661 0.05)
(0 0.0384814 0.05)
(0 0.0402147 0.05)
(0 0.0417832 0.05)
(0 0.0432026 0.05)
(0 0.0444871 0.05)
(0 0.0456496 0.05)
(0 0.0467015 0.05)
(0 0.0476534 0.05)
(0 0.0485149 0.05)
(0 0.0492945 0.05)
(0.00415014 0.05 0.05)
(0.00824223 0.05 0.05)
(0.0122771 0.05 0.05)
(0.0162555 0.05 0.05)
(0.0201783 0.05 0.05)
(0.0240462 0.05 0.05)
(0.0278601 0.05 0.05)
(0.0316205 0.05 0.05)
(0.0353284 0.05 0.05)
(0.0389845 0.05 0.05)
(0.0425894 0.05 0.05)
(0.0461438 0.05 0.05)
(0.0496486 0.05 0.05)
(0.0531044 0.05 0.05)
(0.0565118 0.05 0.05)
(0.0598715 0.05 0.05)
(0.0631843 0.05 0.05)
(0.0664507 0.05 0.05)
(0.0696715 0.05 0.05)
(0.0728472 0.05 0.05)
(0.0759785 0.05 0.05)
(0.079066 0.05 0.05)
(0.0821103 0.05 0.05)
(0.0851121 0.05 0.05)
(0.0880718 0.05 0.05)
(0.0909902 0.05 0.05)
(0.0938677 0.05 0.05)
(0.096705 0.05 0.05)
(0.0995026 0.05 0.05)
(0.102261 0.05 0.05)
(0.104981 0.05 0.05)
(0.107663 0.05 0.05)
(0.110307 0.05 0.05)
(0.112915 0.05 0.05)
(0.115486 0.05 0.05)
(0.11802 0.05 0.05)
(0.12052 0.05 0.05)
(0.122985 0.05 0.05)
(0.125415 0.05 0.05)
(0.127811 0.05 0.05)
(0.130173 0.05 0.05)
(0.132503 0.05 0.05)
(0.1348 0.05 0.05)
(0.137065 0.05 0.05)
(0.139298 0.05 0.05)
(0.1415 0.05 0.05)
(0.143671 0.05 0.05)
(0.145811 0.05 0.05)
(0.147922 0.05 0.05)
(0.150004 0.05 0.05)
(0.152056 0.05 0.05)
(0.154079 0.05 0.05)
(0.156074 0.05 0.05)
(0.158042 0.05 0.05)
(0.159981 0.05 0.05)
(0.161894 0.05 0.05)
(0.16378 0.05 0.05)
(0.165639 0.05 0.05)
(0.167473 0.05 0.05)
(0.169281 0.05 0.05)
(0.171063 0.05 0.05)
(0.172821 0.05 0.05)
(0.174554 0.05 0.05)
(0.176263 0.05 0.05)
(0.177948 0.05 0.05)
(0.179609 0.05 0.05)
(0.181247 0.05 0.05)
(0.182862 0.05 0.05)
(0.184455 0.05 0.05)
(0.186025 0.05 0.05)
(0.187574 0.05 0.05)
(0.189101 0.05 0.05)
(0.190606 0.05 0.05)
(0.19209 0.05 0.05)
(0.193554 0.05 0.05)
(0.194997 0.05 0.05)
(0.19642 0.05 0.05)
(0.197823 0.05 0.05)
(0.199206 0.05 0.05)
(0 0.018031 0.05)
(0 -0.0180599 0.05)
(0 -0.0188993 0.05)
(0 -0.0172206 0.05)
(0 -0.0163813 0.05)
(0 -0.015542 0.05)
(0 -0.0147026 0.05)
(0 -0.0138633 0.05)
(0 -0.013024 0.05)
(0 -0.0121847 0.05)
(0 -0.0113453 0.05)
(0 -0.010506 0.05)
(0 -0.00966669 0.05)
(0 -0.00882737 0.05)
(0 -0.00798804 0.05)
(0 -0.00714872 0.05)
(0 -0.00630939 0.05)
(0 -0.00547007 0.05)
(0 -0.00463074 0.05)
(0 -0.00379142 0.05)
(0 -0.00295209 0.05)
(0 -0.00211277 0.05)
(0 -0.00127345 0.05)
(0 -0.00043412 0.05)
(0 0.000405204 0.05)
(0 0.00124453 0.05)
(0 0.00208385 0.05)
(0 0.00292318 0.05)
(0 0.0037625 0.05)
(0 0.00460183 0.05)
(0 0.00544115 0.05)
(0 0.00628048 0.05)
(0 0.0071198 0.05)
(0 0.00795913 0.05)
(0 0.00879845 0.05)
(0 0.00963778 0.05)
(0 0.0104771 0.05)
(0 0.0113164 0.05)
(0 0.0121558 0.05)
(0 0.0129951 0.05)
(0 0.0138344 0.05)
(0 0.0146737 0.05)
(0 0.0155131 0.05)
(0 0.0163524 0.05)
(0 0.0171917 0.05)
(0.200646 -0.0180599 0.05)
(0.200498 -0.0172206 0.05)
(0.20035 -0.0163813 0.05)
(0.200202 -0.015542 0.05)
(0.200054 -0.0147026 0.05)
(0.199906 -0.0138633 0.05)
(0.199758 -0.013024 0.05)
(0.19961 -0.0121847 0.05)
(0.199462 -0.0113453 0.05)
(0.199314 -0.010506 0.05)
(0.199166 -0.00966669 0.05)
(0.199018 -0.00882737 0.05)
(0.19887 -0.00798804 0.05)
(0.198722 -0.00714872 0.05)
(0.198574 -0.00630939 0.05)
(0.198426 -0.00547007 0.05)
(0.198278 -0.00463074 0.05)
(0.19813 -0.00379142 0.05)
(0.197982 -0.00295209 0.05)
(0.197834 -0.00211277 0.05)
(0.197686 -0.00127345 0.05)
(0.197538 -0.00043412 0.05)
(0.19739 0.000405204 0.05)
(0.197242 0.00124453 0.05)
(0.197094 0.00208385 0.05)
(0.196946 0.00292318 0.05)
(0.196798 0.0037625 0.05)
(0.19665 0.00460183 0.05)
(0.196502 0.00544115 0.05)
(0.196354 0.00628048 0.05)
(0.196206 0.0071198 0.05)
(0.196058 0.00795913 0.05)
(0.19591 0.00879845 0.05)
(0.195762 0.00963778 0.05)
(0.195614 0.0104771 0.05)
(0.195466 0.0113164 0.05)
(0.195318 0.0121558 0.05)
(0.19517 0.0129951 0.05)
(0.195022 0.0138344 0.05)
(0.194874 0.0146737 0.05)
(0.194726 0.0155131 0.05)
(0.194578 0.0163524 0.05)
(0.19443 0.0171917 0.05)
(0.00418322 -0.05 0.05)
(0 -0.0492945 0.05)
(0 -0.0485149 0.05)
(0 -0.0476534 0.05)
(0 -0.0467015 0.05)
(0 -0.0456496 0.05)
(0 -0.0444871 0.05)
(0 -0.0432026 0.05)
(0 -0.0417832 0.05)
(0 -0.0402147 0.05)
(0 -0.0384814 0.05)
(0 -0.0365661 0.05)
(0 -0.0344496 0.05)
(0 -0.0323332 0.05)
(0 -0.0304179 0.05)
(0 -0.0286846 0.05)
(0 -0.0271161 0.05)
(0 -0.0256966 0.05)
(0 -0.0244121 0.05)
(0 -0.0232497 0.05)
(0 -0.0221978 0.05)
(0 -0.0212458 0.05)
(0 -0.0203843 0.05)
(0 -0.0196048 0.05)
(0.00830792 -0.05 0.05)
(0.0123749 -0.05 0.05)
(0.0163851 -0.05 0.05)
(0.0203391 -0.05 0.05)
(0.0242379 -0.05 0.05)
(0.0280821 -0.05 0.05)
(0.0318726 -0.05 0.05)
(0.03561 -0.05 0.05)
(0.0392952 -0.05 0.05)
(0.0429288 -0.05 0.05)
(0.0465116 -0.05 0.05)
(0.0500443 -0.05 0.05)
(0.0535276 -0.05 0.05)
(0.0569622 -0.05 0.05)
(0.0603487 -0.05 0.05)
(0.0636879 -0.05 0.05)
(0.0669804 -0.05 0.05)
(0.0702268 -0.05 0.05)
(0.0734278 -0.05 0.05)
(0.0765841 -0.05 0.05)
(0.0796962 -0.05 0.05)
(0.0827648 -0.05 0.05)
(0.0857904 -0.05 0.05)
(0.0887738 -0.05 0.05)
(0.0917154 -0.05 0.05)
(0.0946159 -0.05 0.05)
(0.0974758 -0.05 0.05)
(0.100296 -0.05 0.05)
(0.103076 -0.05 0.05)
(0.105818 -0.05 0.05)
(0.108521 -0.05 0.05)
(0.111186 -0.05 0.05)
(0.113815 -0.05 0.05)
(0.116406 -0.05 0.05)
(0.118961 -0.05 0.05)
(0.121481 -0.05 0.05)
(0.123965 -0.05 0.05)
(0.126414 -0.05 0.05)
(0.128829 -0.05 0.05)
(0.131211 -0.05 0.05)
(0.133559 -0.05 0.05)
(0.135874 -0.05 0.05)
(0.138157 -0.05 0.05)
(0.140408 -0.05 0.05)
(0.142627 -0.05 0.05)
(0.144816 -0.05 0.05)
(0.146974 -0.05 0.05)
(0.149101 -0.05 0.05)
(0.151199 -0.05 0.05)
(0.153268 -0.05 0.05)
(0.155307 -0.05 0.05)
(0.157318 -0.05 0.05)
(0.159301 -0.05 0.05)
(0.161257 -0.05 0.05)
(0.163184 -0.05 0.05)
(0.165085 -0.05 0.05)
(0.16696 -0.05 0.05)
(0.168808 -0.05 0.05)
(0.17063 -0.05 0.05)
(0.172427 -0.05 0.05)
(0.174198 -0.05 0.05)
(0.175945 -0.05 0.05)
(0.177668 -0.05 0.05)
(0.179366 -0.05 0.05)
(0.181041 -0.05 0.05)
(0.182692 -0.05 0.05)
(0.18432 -0.05 0.05)
(0.185925 -0.05 0.05)
(0.187508 -0.05 0.05)
(0.189069 -0.05 0.05)
(0.190608 -0.05 0.05)
(0.192125 -0.05 0.05)
(0.193621 -0.05 0.05)
(0.195096 -0.05 0.05)
(0.196551 -0.05 0.05)
(0.197985 -0.05 0.05)
(0.199399 -0.05 0.05)
(0.200794 -0.05 0.05)
(0.20058 0.05 0.05)
(0.201959 0.05 0.05)
(0.203343 0.05 0.05)
(0.204731 0.05 0.05)
(0.206125 0.05 0.05)
(0.207523 0.05 0.05)
(0.208926 0.05 0.05)
(0.210333 0.05 0.05)
(0.211746 0.05 0.05)
(0.213163 0.05 0.05)
(0.214586 0.05 0.05)
(0.216013 0.05 0.05)
(0.217445 0.05 0.05)
(0.218882 0.05 0.05)
(0.220324 0.05 0.05)
(0.221772 0.05 0.05)
(0.223224 0.05 0.05)
(0.224681 0.05 0.05)
(0.226143 0.05 0.05)
(0.22761 0.05 0.05)
(0.229082 0.05 0.05)
(0.230559 0.05 0.05)
(0.232042 0.05 0.05)
(0.233529 0.05 0.05)
(0.235022 0.05 0.05)
(0.23652 0.05 0.05)
(0.238022 0.05 0.05)
(0.239531 0.05 0.05)
(0.241044 0.05 0.05)
(0.242562 0.05 0.05)
(0.244086 0.05 0.05)
(0.245615 0.05 0.05)
(0.24715 0.05 0.05)
(0.248689 0.05 0.05)
(0.250234 0.05 0.05)
(0.251784 0.05 0.05)
(0.25334 0.05 0.05)
(0.254901 0.05 0.05)
(0.256467 0.05 0.05)
(0.258039 0.05 0.05)
(0.259616 0.05 0.05)
(0.261199 0.05 0.05)
(0.262787 0.05 0.05)
(0.26438 0.05 0.05)
(0.265979 0.05 0.05)
(0.267584 0.05 0.05)
(0.269194 0.05 0.05)
(0.27081 0.05 0.05)
(0.272431 0.05 0.05)
(0.274058 0.05 0.05)
(0.27569 0.05 0.05)
(0.277328 0.05 0.05)
(0.278972 0.05 0.05)
(0.280621 0.05 0.05)
(0.282276 0.05 0.05)
(0.283937 0.05 0.05)
(0.285604 0.05 0.05)
(0.287276 0.05 0.05)
(0.288954 0.05 0.05)
(0.290638 0.05 0.05)
(0.292327 0.05 0.05)
(0.294023 0.05 0.05)
(0.295724 0.05 0.05)
(0.297431 0.05 0.05)
(0.299144 0.05 0.05)
(0.300863 0.05 0.05)
(0.302588 0.05 0.05)
(0.304319 0.05 0.05)
(0.306056 0.05 0.05)
(0.307799 0.05 0.05)
(0.309548 0.05 0.05)
(0.311303 0.05 0.05)
(0.313063 0.05 0.05)
(0.31483 0.05 0.05)
(0.316604 0.05 0.05)
(0.318383 0.05 0.05)
(0.320168 0.05 0.05)
(0.32196 0.05 0.05)
(0.323757 0.05 0.05)
(0.325561 0.05 0.05)
(0.327371 0.05 0.05)
(0.329188 0.05 0.05)
(0.33101 0.05 0.05)
(0.332839 0.05 0.05)
(0.334674 0.05 0.05)
(0.336516 0.05 0.05)
(0.338364 0.05 0.05)
(0.340218 0.05 0.05)
(0.342079 0.05 0.05)
(0.343946 0.05 0.05)
(0.345819 0.05 0.05)
(0.347699 0.05 0.05)
(0.349586 0.05 0.05)
(0.351479 0.05 0.05)
(0.353378 0.05 0.05)
(0.355285 0.05 0.05)
(0.357197 0.05 0.05)
(0.359116 0.05 0.05)
(0.361042 0.05 0.05)
(0.362975 0.05 0.05)
(0.364914 0.05 0.05)
(0.36686 0.05 0.05)
(0.368812 0.05 0.05)
(0.370772 0.05 0.05)
(0.372738 0.05 0.05)
(0.374711 0.05 0.05)
(0.37669 0.05 0.05)
(0.378677 0.05 0.05)
(0.38067 0.05 0.05)
(0.382671 0.05 0.05)
(0.384678 0.05 0.05)
(0.386692 0.05 0.05)
(0.388713 0.05 0.05)
(0.390741 0.05 0.05)
(0.392776 0.05 0.05)
(0.394818 0.05 0.05)
(0.396867 0.05 0.05)
(0.398923 0.05 0.05)
(0.400986 0.05 0.05)
(0.403056 0.05 0.05)
(0.405134 0.05 0.05)
(0.407218 0.05 0.05)
(0.40931 0.05 0.05)
(0.411409 0.05 0.05)
(0.413515 0.05 0.05)
(0.415629 0.05 0.05)
(0.41775 0.05 0.05)
(0.419878 0.05 0.05)
(0.422014 0.05 0.05)
(0.424156 0.05 0.05)
(0.426307 0.05 0.05)
(0.428464 0.05 0.05)
(0.430629 0.05 0.05)
(0.432802 0.05 0.05)
(0.434982 0.05 0.05)
(0.43717 0.05 0.05)
(0.439365 0.05 0.05)
(0.441568 0.05 0.05)
(0.443778 0.05 0.05)
(0.445996 0.05 0.05)
(0.448221 0.05 0.05)
(0.450455 0.05 0.05)
(0.452696 0.05 0.05)
(0.454944 0.05 0.05)
(0.457201 0.05 0.05)
(0.459465 0.05 0.05)
(0.461737 0.05 0.05)
(0.464017 0.05 0.05)
(0.466305 0.05 0.05)
(0.4686 0.05 0.05)
(0.470904 0.05 0.05)
(0.473216 0.05 0.05)
(0.475535 0.05 0.05)
(0.477863 0.05 0.05)
(0.480198 0.05 0.05)
(0.482542 0.05 0.05)
(0.484893 0.05 0.05)
(0.487253 0.05 0.05)
(0.489621 0.05 0.05)
(0.491997 0.05 0.05)
(0.494381 0.05 0.05)
(0.496774 0.05 0.05)
(0.499175 0.05 0.05)
(0.501584 0.05 0.05)
(0.504001 0.05 0.05)
(0.506427 0.05 0.05)
(0.508861 0.05 0.05)
(0.511303 0.05 0.05)
(0.513754 0.05 0.05)
(0.516214 0.05 0.05)
(0.518681 0.05 0.05)
(0.521158 0.05 0.05)
(0.523643 0.05 0.05)
(0.526136 0.05 0.05)
(0.528638 0.05 0.05)
(0.531149 0.05 0.05)
(0.533668 0.05 0.05)
(0.536196 0.05 0.05)
(0.538733 0.05 0.05)
(0.541279 0.05 0.05)
(0.543833 0.05 0.05)
(0.546396 0.05 0.05)
(0.548968 0.05 0.05)
(0.551549 0.05 0.05)
(0.554139 0.05 0.05)
(0.556737 0.05 0.05)
(0.559345 0.05 0.05)
(0.561962 0.05 0.05)
(0.564587 0.05 0.05)
(0.567222 0.05 0.05)
(0.569866 0.05 0.05)
(0.572519 0.05 0.05)
(0.575181 0.05 0.05)
(0.577852 0.05 0.05)
(0.580532 0.05 0.05)
(0.583222 0.05 0.05)
(0.585921 0.05 0.05)
(0.58863 0.05 0.05)
(0.591347 0.05 0.05)
(0.594074 0.05 0.05)
(0.596811 0.05 0.05)
(0.599557 0.05 0.05)
(0.602312 0.05 0.05)
(0.605077 0.05 0.05)
(0.607851 0.05 0.05)
(0.610635 0.05 0.05)
(0.613429 0.05 0.05)
(0.616232 0.05 0.05)
(0.619045 0.05 0.05)
(0.621867 0.05 0.05)
(0.6247 0.05 0.05)
(0.627542 0.05 0.05)
(0.630394 0.05 0.05)
(0.633255 0.05 0.05)
(0.636127 0.05 0.05)
(0.639009 0.05 0.05)
(0.6419 0.05 0.05)
(0.644801 0.05 0.05)
(0.647713 0.05 0.05)
(0.650634 0.05 0.05)
(0.653566 0.05 0.05)
(0.656508 0.05 0.05)
(0.65946 0.05 0.05)
(0.662422 0.05 0.05)
(0.665394 0.05 0.05)
(0.668376 0.05 0.05)
(0.671369 0.05 0.05)
(0.674372 0.05 0.05)
(0.677386 0.05 0.05)
(0.680409 0.05 0.05)
(0.683444 0.05 0.05)
(0.686488 0.05 0.05)
(0.689544 0.05 0.05)
(0.69261 0.05 0.05)
(0.695686 0.05 0.05)
(0.698773 0.05 0.05)
(0.701871 0.05 0.05)
(0.704979 0.05 0.05)
(0.708098 0.05 0.05)
(0.711228 0.05 0.05)
(0.714368 0.05 0.05)
(0.71752 0.05 0.05)
(0.720682 0.05 0.05)
(0.723855 0.05 0.05)
(0.72704 0.05 0.05)
(0.730235 0.05 0.05)
(0.733441 0.05 0.05)
(0.736658 0.05 0.05)
(0.739886 0.05 0.05)
(0.743126 0.05 0.05)
(0.746377 0.05 0.05)
(0.749638 0.05 0.05)
(0.752912 0.05 0.05)
(0.756196 0.05 0.05)
(0.759492 0.05 0.05)
(0.762799 0.05 0.05)
(0.766117 0.05 0.05)
(0.769447 0.05 0.05)
(0.772789 0.05 0.05)
(0.776142 0.05 0.05)
(0.779506 0.05 0.05)
(0.782882 0.05 0.05)
(0.78627 0.05 0.05)
(0.78967 0.05 0.05)
(0.793081 0.05 0.05)
(0.796504 0.05 0.05)
(0.799939 0.05 0.05)
(0.803385 0.05 0.05)
(0.806844 0.05 0.05)
(0.810314 0.05 0.05)
(0.813797 0.05 0.05)
(0.817291 0.05 0.05)
(0.820798 0.05 0.05)
(0.824316 0.05 0.05)
(0.827847 0.05 0.05)
(0.83139 0.05 0.05)
(0.834945 0.05 0.05)
(0.838513 0.05 0.05)
(0.842092 0.05 0.05)
(0.845684 0.05 0.05)
(0.849289 0.05 0.05)
(0.852906 0.05 0.05)
(0.856535 0.05 0.05)
(0.860177 0.05 0.05)
(0.863832 0.05 0.05)
(0.867499 0.05 0.05)
(0.871178 0.05 0.05)
(0.874871 0.05 0.05)
(0.878576 0.05 0.05)
(0.882294 0.05 0.05)
(0.886025 0.05 0.05)
(0.889768 0.05 0.05)
(0.893525 0.05 0.05)
(0.897294 0.05 0.05)
(0.901077 0.05 0.05)
(0.904872 0.05 0.05)
(0.908681 0.05 0.05)
(0.912503 0.05 0.05)
(0.916338 0.05 0.05)
(0.920186 0.05 0.05)
(0.924048 0.05 0.05)
(0.927922 0.05 0.05)
(0.93181 0.05 0.05)
(0.935712 0.05 0.05)
(0.939627 0.05 0.05)
(0.943556 0.05 0.05)
(0.947498 0.05 0.05)
(0.951453 0.05 0.05)
(0.955423 0.05 0.05)
(0.959406 0.05 0.05)
(0.963403 0.05 0.05)
(0.967413 0.05 0.05)
(0.971438 0.05 0.05)
(0.975476 0.05 0.05)
(0.979528 0.05 0.05)
(0.983594 0.05 0.05)
(0.987675 0.05 0.05)
(0.991769 0.05 0.05)
(0.995877 0.05 0.05)
(1 0.0188993 0.05)
(1 0.0196048 0.05)
(1 0.0203843 0.05)
(1 0.0212458 0.05)
(1 0.0221978 0.05)
(1 0.0232497 0.05)
(1 0.0244121 0.05)
(1 0.0256966 0.05)
(1 0.0271161 0.05)
(1 0.0286846 0.05)
(1 0.0304179 0.05)
(1 0.0323332 0.05)
(1 0.0344496 0.05)
(1 0.0365661 0.05)
(1 0.0384814 0.05)
(1 0.0402147 0.05)
(1 0.0417832 0.05)
(1 0.0432026 0.05)
(1 0.0444871 0.05)
(1 0.0456496 0.05)
(1 0.0467015 0.05)
(1 0.0476534 0.05)
(1 0.0485149 0.05)
(1 0.0492945 0.05)
(0.20557 -0.0171917 0.05)
(0.205422 -0.0163524 0.05)
(0.205274 -0.0155131 0.05)
(0.205126 -0.0146737 0.05)
(0.204978 -0.0138344 0.05)
(0.20483 -0.0129951 0.05)
(0.204682 -0.0121558 0.05)
(0.204534 -0.0113164 0.05)
(0.204386 -0.0104771 0.05)
(0.204238 -0.00963778 0.05)
(0.20409 -0.00879845 0.05)
(0.203942 -0.00795913 0.05)
(0.203794 -0.0071198 0.05)
(0.203646 -0.00628048 0.05)
(0.203498 -0.00544115 0.05)
(0.20335 -0.00460183 0.05)
(0.203202 -0.0037625 0.05)
(0.203054 -0.00292318 0.05)
(0.202906 -0.00208385 0.05)
(0.202758 -0.00124453 0.05)
(0.20261 -0.000405204 0.05)
(0.202462 0.00043412 0.05)
(0.202314 0.00127345 0.05)
(0.202166 0.00211277 0.05)
(0.202018 0.00295209 0.05)
(0.20187 0.00379142 0.05)
(0.201722 0.00463074 0.05)
(0.201574 0.00547007 0.05)
(0.201426 0.00630939 0.05)
(0.201278 0.00714872 0.05)
(0.20113 0.00798804 0.05)
(0.200982 0.00882737 0.05)
(0.200834 0.00966669 0.05)
(0.200686 0.010506 0.05)
(0.200538 0.0113453 0.05)
(0.20039 0.0121847 0.05)
(0.200242 0.013024 0.05)
(0.200094 0.0138633 0.05)
(0.199946 0.0147026 0.05)
(0.199798 0.015542 0.05)
(0.19965 0.0163813 0.05)
(0.199502 0.0172206 0.05)
(0.199354 0.0180599 0.05)
(1 -0.018031 0.05)
(1 -0.0171917 0.05)
(1 -0.0163524 0.05)
(1 -0.0155131 0.05)
(1 -0.0146737 0.05)
(1 -0.0138344 0.05)
(1 -0.0129951 0.05)
(1 -0.0121558 0.05)
(1 -0.0113164 0.05)
(1 -0.0104771 0.05)
(1 -0.00963778 0.05)
(1 -0.00879845 0.05)
(1 -0.00795913 0.05)
(1 -0.0071198 0.05)
(1 -0.00628048 0.05)
(1 -0.00544115 0.05)
(1 -0.00460183 0.05)
(1 -0.0037625 0.05)
(1 -0.00292318 0.05)
(1 -0.00208385 0.05)
(1 -0.00124453 0.05)
(1 -0.000405204 0.05)
(1 0.00043412 0.05)
(1 0.00127345 0.05)
(1 0.00211277 0.05)
(1 0.00295209 0.05)
(1 0.00379142 0.05)
(1 0.00463074 0.05)
(1 0.00547007 0.05)
(1 0.00630939 0.05)
(1 0.00714872 0.05)
(1 0.00798804 0.05)
(1 0.00882737 0.05)
(1 0.00966669 0.05)
(1 0.010506 0.05)
(1 0.0113453 0.05)
(1 0.0121847 0.05)
(1 0.013024 0.05)
(1 0.0138633 0.05)
(1 0.0147026 0.05)
(1 0.015542 0.05)
(1 0.0163813 0.05)
(1 0.0172206 0.05)
(1 0.0180599 0.05)
(1 -0.0188993 0.05)
(0.202165 -0.05 0.05)
(0.203542 -0.05 0.05)
(0.204923 -0.05 0.05)
(0.206308 -0.05 0.05)
(0.207699 -0.05 0.05)
(0.209094 -0.05 0.05)
(0.210494 -0.05 0.05)
(0.211899 -0.05 0.05)
(0.213309 -0.05 0.05)
(0.214724 -0.05 0.05)
(0.216143 -0.05 0.05)
(0.217568 -0.05 0.05)
(0.218997 -0.05 0.05)
(0.220431 -0.05 0.05)
(0.22187 -0.05 0.05)
(0.223315 -0.05 0.05)
(0.224764 -0.05 0.05)
(0.226218 -0.05 0.05)
(0.227677 -0.05 0.05)
(0.229141 -0.05 0.05)
(0.230611 -0.05 0.05)
(0.232085 -0.05 0.05)
(0.233564 -0.05 0.05)
(0.235049 -0.05 0.05)
(0.236539 -0.05 0.05)
(0.238033 -0.05 0.05)
(0.239533 -0.05 0.05)
(0.241038 -0.05 0.05)
(0.242549 -0.05 0.05)
(0.244064 -0.05 0.05)
(0.245585 -0.05 0.05)
(0.247111 -0.05 0.05)
(0.248642 -0.05 0.05)
(0.250179 -0.05 0.05)
(0.251721 -0.05 0.05)
(0.253268 -0.05 0.05)
(0.25482 -0.05 0.05)
(0.256378 -0.05 0.05)
(0.257941 -0.05 0.05)
(0.25951 -0.05 0.05)
(0.261084 -0.05 0.05)
(0.262664 -0.05 0.05)
(0.264249 -0.05 0.05)
(0.265839 -0.05 0.05)
(0.267435 -0.05 0.05)
(0.269036 -0.05 0.05)
(0.270643 -0.05 0.05)
(0.272256 -0.05 0.05)
(0.273874 -0.05 0.05)
(0.275497 -0.05 0.05)
(0.277126 -0.05 0.05)
(0.278761 -0.05 0.05)
(0.280402 -0.05 0.05)
(0.282048 -0.05 0.05)
(0.283699 -0.05 0.05)
(0.285357 -0.05 0.05)
(0.28702 -0.05 0.05)
(0.288689 -0.05 0.05)
(0.290364 -0.05 0.05)
(0.292044 -0.05 0.05)
(0.293731 -0.05 0.05)
(0.295423 -0.05 0.05)
(0.297121 -0.05 0.05)
(0.298824 -0.05 0.05)
(0.300534 -0.05 0.05)
(0.30225 -0.05 0.05)
(0.303971 -0.05 0.05)
(0.305699 -0.05 0.05)
(0.307432 -0.05 0.05)
(0.309171 -0.05 0.05)
(0.310917 -0.05 0.05)
(0.312668 -0.05 0.05)
(0.314426 -0.05 0.05)
(0.316189 -0.05 0.05)
(0.317959 -0.05 0.05)
(0.319734 -0.05 0.05)
(0.321516 -0.05 0.05)
(0.323304 -0.05 0.05)
(0.325098 -0.05 0.05)
(0.326898 -0.05 0.05)
(0.328705 -0.05 0.05)
(0.330518 -0.05 0.05)
(0.332337 -0.05 0.05)
(0.334162 -0.05 0.05)
(0.335994 -0.05 0.05)
(0.337831 -0.05 0.05)
(0.339676 -0.05 0.05)
(0.341526 -0.05 0.05)
(0.343383 -0.05 0.05)
(0.345247 -0.05 0.05)
(0.347117 -0.05 0.05)
(0.348993 -0.05 0.05)
(0.350876 -0.05 0.05)
(0.352765 -0.05 0.05)
(0.354661 -0.05 0.05)
(0.356563 -0.05 0.05)
(0.358472 -0.05 0.05)
(0.360387 -0.05 0.05)
(0.362309 -0.05 0.05)
(0.364238 -0.05 0.05)
(0.366173 -0.05 0.05)
(0.368115 -0.05 0.05)
(0.370064 -0.05 0.05)
(0.372019 -0.05 0.05)
(0.373982 -0.05 0.05)
(0.375951 -0.05 0.05)
(0.377926 -0.05 0.05)
(0.379909 -0.05 0.05)
(0.381898 -0.05 0.05)
(0.383895 -0.05 0.05)
(0.385898 -0.05 0.05)
(0.387908 -0.05 0.05)
(0.389925 -0.05 0.05)
(0.391949 -0.05 0.05)
(0.39398 -0.05 0.05)
(0.396018 -0.05 0.05)
(0.398063 -0.05 0.05)
(0.400115 -0.05 0.05)
(0.402174 -0.05 0.05)
(0.40424 -0.05 0.05)
(0.406313 -0.05 0.05)
(0.408394 -0.05 0.05)
(0.410481 -0.05 0.05)
(0.412576 -0.05 0.05)
(0.414678 -0.05 0.05)
(0.416788 -0.05 0.05)
(0.418904 -0.05 0.05)
(0.421028 -0.05 0.05)
(0.42316 -0.05 0.05)
(0.425298 -0.05 0.05)
(0.427444 -0.05 0.05)
(0.429597 -0.05 0.05)
(0.431758 -0.05 0.05)
(0.433927 -0.05 0.05)
(0.436102 -0.05 0.05)
(0.438286 -0.05 0.05)
(0.440476 -0.05 0.05)
(0.442675 -0.05 0.05)
(0.444881 -0.05 0.05)
(0.447094 -0.05 0.05)
(0.449315 -0.05 0.05)
(0.451544 -0.05 0.05)
(0.453781 -0.05 0.05)
(0.456025 -0.05 0.05)
(0.458277 -0.05 0.05)
(0.460537 -0.05 0.05)
(0.462804 -0.05 0.05)
(0.46508 -0.05 0.05)
(0.467363 -0.05 0.05)
(0.469654 -0.05 0.05)
(0.471953 -0.05 0.05)
(0.47426 -0.05 0.05)
(0.476575 -0.05 0.05)
(0.478898 -0.05 0.05)
(0.481229 -0.05 0.05)
(0.483568 -0.05 0.05)
(0.485915 -0.05 0.05)
(0.48827 -0.05 0.05)
(0.490633 -0.05 0.05)
(0.493004 -0.05 0.05)
(0.495384 -0.05 0.05)
(0.497772 -0.05 0.05)
(0.500168 -0.05 0.05)
(0.502572 -0.05 0.05)
(0.504985 -0.05 0.05)
(0.507405 -0.05 0.05)
(0.509835 -0.05 0.05)
(0.512272 -0.05 0.05)
(0.514718 -0.05 0.05)
(0.517173 -0.05 0.05)
(0.519636 -0.05 0.05)
(0.522107 -0.05 0.05)
(0.524587 -0.05 0.05)
(0.527076 -0.05 0.05)
(0.529573 -0.05 0.05)
(0.532079 -0.05 0.05)
(0.534593 -0.05 0.05)
(0.537116 -0.05 0.05)
(0.539648 -0.05 0.05)
(0.542188 -0.05 0.05)
(0.544737 -0.05 0.05)
(0.547295 -0.05 0.05)
(0.549862 -0.05 0.05)
(0.552438 -0.05 0.05)
(0.555023 -0.05 0.05)
(0.557616 -0.05 0.05)
(0.560219 -0.05 0.05)
(0.56283 -0.05 0.05)
(0.56545 -0.05 0.05)
(0.56808 -0.05 0.05)
(0.570719 -0.05 0.05)
(0.573366 -0.05 0.05)
(0.576023 -0.05 0.05)
(0.578689 -0.05 0.05)
(0.581364 -0.05 0.05)
(0.584049 -0.05 0.05)
(0.586742 -0.05 0.05)
(0.589445 -0.05 0.05)
(0.592157 -0.05 0.05)
(0.594879 -0.05 0.05)
(0.59761 -0.05 0.05)
(0.600351 -0.05 0.05)
(0.6031 -0.05 0.05)
(0.60586 -0.05 0.05)
(0.608629 -0.05 0.05)
(0.611407 -0.05 0.05)
(0.614195 -0.05 0.05)
(0.616993 -0.05 0.05)
(0.6198 -0.05 0.05)
(0.622617 -0.05 0.05)
(0.625444 -0.05 0.05)
(0.62828 -0.05 0.05)
(0.631127 -0.05 0.05)
(0.633983 -0.05 0.05)
(0.636849 -0.05 0.05)
(0.639724 -0.05 0.05)
(0.64261 -0.05 0.05)
(0.645506 -0.05 0.05)
(0.648411 -0.05 0.05)
(0.651327 -0.05 0.05)
(0.654253 -0.05 0.05)
(0.657189 -0.05 0.05)
(0.660135 -0.05 0.05)
(0.663091 -0.05 0.05)
(0.666057 -0.05 0.05)
(0.669034 -0.05 0.05)
(0.672021 -0.05 0.05)
(0.675018 -0.05 0.05)
(0.678025 -0.05 0.05)
(0.681043 -0.05 0.05)
(0.684071 -0.05 0.05)
(0.68711 -0.05 0.05)
(0.690159 -0.05 0.05)
(0.693219 -0.05 0.05)
(0.696289 -0.05 0.05)
(0.69937 -0.05 0.05)
(0.702462 -0.05 0.05)
(0.705564 -0.05 0.05)
(0.708677 -0.05 0.05)
(0.7118 -0.05 0.05)
(0.714935 -0.05 0.05)
(0.71808 -0.05 0.05)
(0.721236 -0.05 0.05)
(0.724403 -0.05 0.05)
(0.727581 -0.05 0.05)
(0.73077 -0.05 0.05)
(0.733969 -0.05 0.05)
(0.73718 -0.05 0.05)
(0.740402 -0.05 0.05)
(0.743635 -0.05 0.05)
(0.746879 -0.05 0.05)
(0.750135 -0.05 0.05)
(0.753401 -0.05 0.05)
(0.756679 -0.05 0.05)
(0.759969 -0.05 0.05)
(0.763269 -0.05 0.05)
(0.766581 -0.05 0.05)
(0.769904 -0.05 0.05)
(0.773239 -0.05 0.05)
(0.776586 -0.05 0.05)
(0.779943 -0.05 0.05)
(0.783313 -0.05 0.05)
(0.786694 -0.05 0.05)
(0.790087 -0.05 0.05)
(0.793491 -0.05 0.05)
(0.796907 -0.05 0.05)
(0.800335 -0.05 0.05)
(0.803775 -0.05 0.05)
(0.807227 -0.05 0.05)
(0.810691 -0.05 0.05)
(0.814166 -0.05 0.05)
(0.817654 -0.05 0.05)
(0.821153 -0.05 0.05)
(0.824665 -0.05 0.05)
(0.828189 -0.05 0.05)
(0.831724 -0.05 0.05)
(0.835273 -0.05 0.05)
(0.838833 -0.05 0.05)
(0.842405 -0.05 0.05)
(0.84599 -0.05 0.05)
(0.849588 -0.05 0.05)
(0.853197 -0.05 0.05)
(0.85682 -0.05 0.05)
(0.860454 -0.05 0.05)
(0.864102 -0.05 0.05)
(0.867761 -0.05 0.05)
(0.871434 -0.05 0.05)
(0.875119 -0.05 0.05)
(0.878817 -0.05 0.05)
(0.882527 -0.05 0.05)
(0.886251 -0.05 0.05)
(0.889987 -0.05 0.05)
(0.893736 -0.05 0.05)
(0.897498 -0.05 0.05)
(0.901273 -0.05 0.05)
(0.905061 -0.05 0.05)
(0.908862 -0.05 0.05)
(0.912676 -0.05 0.05)
(0.916504 -0.05 0.05)
(0.920344 -0.05 0.05)
(0.924198 -0.05 0.05)
(0.928065 -0.05 0.05)
(0.931946 -0.05 0.05)
(0.93584 -0.05 0.05)
(0.939747 -0.05 0.05)
(0.943668 -0.05 0.05)
(0.947602 -0.05 0.05)
(0.95155 -0.05 0.05)
(0.955511 -0.05 0.05)
(0.959486 -0.05 0.05)
(0.963475 -0.05 0.05)
(0.967478 -0.05 0.05)
(0.971494 -0.05 0.05)
(0.975525 -0.05 0.05)
(0.979569 -0.05 0.05)
(0.983627 -0.05 0.05)
(0.987699 -0.05 0.05)
(0.991785 -0.05 0.05)
(0.995886 -0.05 0.05)
(1 -0.0492945 0.05)
(1 -0.0485149 0.05)
(1 -0.0476534 0.05)
(1 -0.0467015 0.05)
(1 -0.0456496 0.05)
(1 -0.0444871 0.05)
(1 -0.0432026 0.05)
(1 -0.0417832 0.05)
(1 -0.0402147 0.05)
(1 -0.0384814 0.05)
(1 -0.0365661 0.05)
(1 -0.0344496 0.05)
(1 -0.0323332 0.05)
(1 -0.0304179 0.05)
(1 -0.0286846 0.05)
(1 -0.0271161 0.05)
(1 -0.0256966 0.05)
(1 -0.0244121 0.05)
(1 -0.0232497 0.05)
(1 -0.0221978 0.05)
(1 -0.0212458 0.05)
(1 -0.0203843 0.05)
(1 -0.0196048 0.05)
(0 -0.0492945 -0.05)
(0.00418322 -0.05 -0.05)
(0 -0.0485149 -0.05)
(0 -0.0476534 -0.05)
(0 -0.0467015 -0.05)
(0 -0.0456496 -0.05)
(0 -0.0444871 -0.05)
(0 -0.0432026 -0.05)
(0 -0.0417832 -0.05)
(0 -0.0402147 -0.05)
(0 -0.0384814 -0.05)
(0 -0.0365661 -0.05)
(0 -0.0344496 -0.05)
(0 -0.0323332 -0.05)
(0 -0.0304179 -0.05)
(0 -0.0286846 -0.05)
(0 -0.0271161 -0.05)
(0 -0.0256966 -0.05)
(0 -0.0244121 -0.05)
(0 -0.0232497 -0.05)
(0 -0.0221978 -0.05)
(0 -0.0212458 -0.05)
(0 -0.0203843 -0.05)
(0 -0.0196048 -0.05)
(0 -0.0188993 -0.05)
(0.00830792 -0.05 -0.05)
(0.0123749 -0.05 -0.05)
(0.0163851 -0.05 -0.05)
(0.0203391 -0.05 -0.05)
(0.0242379 -0.05 -0.05)
(0.0280821 -0.05 -0.05)
(0.0318726 -0.05 -0.05)
(0.03561 -0.05 -0.05)
(0.0392952 -0.05 -0.05)
(0.0429288 -0.05 -0.05)
(0.0465116 -0.05 -0.05)
(0.0500443 -0.05 -0.05)
(0.0535276 -0.05 -0.05)
(0.0569622 -0.05 -0.05)
(0.0603487 -0.05 -0.05)
(0.0636879 -0.05 -0.05)
(0.0669804 -0.05 -0.05)
(0.0702268 -0.05 -0.05)
(0.0734278 -0.05 -0.05)
(0.0765841 -0.05 -0.05)
(0.0796962 -0.05 -0.05)
(0.0827648 -0.05 -0.05)
(0.0857904 -0.05 -0.05)
(0.0887738 -0.05 -0.05)
(0.0917154 -0.05 -0.05)
(0.0946159 -0.05 -0.05)
(0.0974758 -0.05 -0.05)
(0.100296 -0.05 -0.05)
(0.103076 -0.05 -0.05)
(0.105818 -0.05 -0.05)
(0.108521 -0.05 -0.05)
(0.111186 -0.05 -0.05)
(0.113815 -0.05 -0.05)
(0.116406 -0.05 -0.05)
(0.118961 -0.05 -0.05)
(0.121481 -0.05 -0.05)
(0.123965 -0.05 -0.05)
(0.126414 -0.05 -0.05)
(0.128829 -0.05 -0.05)
(0.131211 -0.05 -0.05)
(0.133559 -0.05 -0.05)
(0.135874 -0.05 -0.05)
(0.138157 -0.05 -0.05)
(0.140408 -0.05 -0.05)
(0.142627 -0.05 -0.05)
(0.144816 -0.05 -0.05)
(0.146974 -0.05 -0.05)
(0.149101 -0.05 -0.05)
(0.151199 -0.05 -0.05)
(0.153268 -0.05 -0.05)
(0.155307 -0.05 -0.05)
(0.157318 -0.05 -0.05)
(0.159301 -0.05 -0.05)
(0.161257 -0.05 -0.05)
(0.163184 -0.05 -0.05)
(0.165085 -0.05 -0.05)
(0.16696 -0.05 -0.05)
(0.168808 -0.05 -0.05)
(0.17063 -0.05 -0.05)
(0.172427 -0.05 -0.05)
(0.174198 -0.05 -0.05)
(0.175945 -0.05 -0.05)
(0.177668 -0.05 -0.05)
(0.179366 -0.05 -0.05)
(0.181041 -0.05 -0.05)
(0.182692 -0.05 -0.05)
(0.18432 -0.05 -0.05)
(0.185925 -0.05 -0.05)
(0.187508 -0.05 -0.05)
(0.189069 -0.05 -0.05)
(0.190608 -0.05 -0.05)
(0.192125 -0.05 -0.05)
(0.193621 -0.05 -0.05)
(0.195096 -0.05 -0.05)
(0.196551 -0.05 -0.05)
(0.197985 -0.05 -0.05)
(0.199399 -0.05 -0.05)
(0.200794 -0.05 -0.05)
(0 -0.0180599 -0.05)
(0 -0.0172206 -0.05)
(0 -0.0163813 -0.05)
(0 -0.015542 -0.05)
(0 -0.0147026 -0.05)
(0 -0.0138633 -0.05)
(0 -0.013024 -0.05)
(0 -0.0121847 -0.05)
(0 -0.0113453 -0.05)
(0 -0.010506 -0.05)
(0 -0.00966669 -0.05)
(0 -0.00882737 -0.05)
(0 -0.00798804 -0.05)
(0 -0.00714872 -0.05)
(0 -0.00630939 -0.05)
(0 -0.00547007 -0.05)
(0 -0.00463074 -0.05)
(0 -0.00379142 -0.05)
(0 -0.00295209 -0.05)
(0 -0.00211277 -0.05)
(0 -0.00127345 -0.05)
(0 -0.00043412 -0.05)
(0 0.000405204 -0.05)
(0 0.00124453 -0.05)
(0 0.00208385 -0.05)
(0 0.00292318 -0.05)
(0 0.0037625 -0.05)
(0 0.00460183 -0.05)
(0 0.00544115 -0.05)
(0 0.00628048 -0.05)
(0 0.0071198 -0.05)
(0 0.00795913 -0.05)
(0 0.00879845 -0.05)
(0 0.00963778 -0.05)
(0 0.0104771 -0.05)
(0 0.0113164 -0.05)
(0 0.0121558 -0.05)
(0 0.0129951 -0.05)
(0 0.0138344 -0.05)
(0 0.0146737 -0.05)
(0 0.0155131 -0.05)
(0 0.0163524 -0.05)
(0 0.0171917 -0.05)
(0 0.018031 -0.05)
(0.200646 -0.0180599 -0.05)
(0.200498 -0.0172206 -0.05)
(0.20035 -0.0163813 -0.05)
(0.200202 -0.015542 -0.05)
(0.200054 -0.0147026 -0.05)
(0.199906 -0.0138633 -0.05)
(0.199758 -0.013024 -0.05)
(0.19961 -0.0121847 -0.05)
(0.199462 -0.0113453 -0.05)
(0.199314 -0.010506 -0.05)
(0.199166 -0.00966669 -0.05)
(0.199018 -0.00882737 -0.05)
(0.19887 -0.00798804 -0.05)
(0.198722 -0.00714872 -0.05)
(0.198574 -0.00630939 -0.05)
(0.198426 -0.00547007 -0.05)
(0.198278 -0.00463074 -0.05)
(0.19813 -0.00379142 -0.05)
(0.197982 -0.00295209 -0.05)
(0.197834 -0.00211277 -0.05)
(0.197686 -0.00127345 -0.05)
(0.197538 -0.00043412 -0.05)
(0.19739 0.000405204 -0.05)
(0.197242 0.00124453 -0.05)
(0.197094 0.00208385 -0.05)
(0.196946 0.00292318 -0.05)
(0.196798 0.0037625 -0.05)
(0.19665 0.00460183 -0.05)
(0.196502 0.00544115 -0.05)
(0.196354 0.00628048 -0.05)
(0.196206 0.0071198 -0.05)
(0.196058 0.00795913 -0.05)
(0.19591 0.00879845 -0.05)
(0.195762 0.00963778 -0.05)
(0.195614 0.0104771 -0.05)
(0.195466 0.0113164 -0.05)
(0.195318 0.0121558 -0.05)
(0.19517 0.0129951 -0.05)
(0.195022 0.0138344 -0.05)
(0.194874 0.0146737 -0.05)
(0.194726 0.0155131 -0.05)
(0.194578 0.0163524 -0.05)
(0.19443 0.0171917 -0.05)
(0 0.0188993 -0.05)
(0 0.0196048 -0.05)
(0 0.0203843 -0.05)
(0 0.0212458 -0.05)
(0 0.0221978 -0.05)
(0 0.0232497 -0.05)
(0 0.0244121 -0.05)
(0 0.0256966 -0.05)
(0 0.0271161 -0.05)
(0 0.0286846 -0.05)
(0 0.0304179 -0.05)
(0 0.0323332 -0.05)
(0 0.0344496 -0.05)
(0 0.0365661 -0.05)
(0 0.0384814 -0.05)
(0 0.0402147 -0.05)
(0 0.0417832 -0.05)
(0 0.0432026 -0.05)
(0 0.0444871 -0.05)
(0 0.0456496 -0.05)
(0 0.0467015 -0.05)
(0 0.0476534 -0.05)
(0 0.0485149 -0.05)
(0 0.0492945 -0.05)
(0.00415014 0.05 -0.05)
(0.00824223 0.05 -0.05)
(0.0122771 0.05 -0.05)
(0.0162555 0.05 -0.05)
(0.0201783 0.05 -0.05)
(0.0240462 0.05 -0.05)
(0.0278601 0.05 -0.05)
(0.0316205 0.05 -0.05)
(0.0353284 0.05 -0.05)
(0.0389845 0.05 -0.05)
(0.0425894 0.05 -0.05)
(0.0461438 0.05 -0.05)
(0.0496486 0.05 -0.05)
(0.0531044 0.05 -0.05)
(0.0565118 0.05 -0.05)
(0.0598715 0.05 -0.05)
(0.0631843 0.05 -0.05)
(0.0664507 0.05 -0.05)
(0.0696715 0.05 -0.05)
(0.0728472 0.05 -0.05)
(0.0759785 0.05 -0.05)
(0.079066 0.05 -0.05)
(0.0821103 0.05 -0.05)
(0.0851121 0.05 -0.05)
(0.0880718 0.05 -0.05)
(0.0909902 0.05 -0.05)
(0.0938677 0.05 -0.05)
(0.096705 0.05 -0.05)
(0.0995026 0.05 -0.05)
(0.102261 0.05 -0.05)
(0.104981 0.05 -0.05)
(0.107663 0.05 -0.05)
(0.110307 0.05 -0.05)
(0.112915 0.05 -0.05)
(0.115486 0.05 -0.05)
(0.11802 0.05 -0.05)
(0.12052 0.05 -0.05)
(0.122985 0.05 -0.05)
(0.125415 0.05 -0.05)
(0.127811 0.05 -0.05)
(0.130173 0.05 -0.05)
(0.132503 0.05 -0.05)
(0.1348 0.05 -0.05)
(0.137065 0.05 -0.05)
(0.139298 0.05 -0.05)