/*--------------------------------*- C++ -*----------------------------------*\
  =========                 |
  \\      /  F ield         | OpenFOAM: The Open Source CFD Toolbox
   \\    /   O peration     | Website:  https://openfoam.org
    \\  /    A nd           | Version:  7
     \\/     M anipulation  |
\*---------------------------------------------------------------------------*/
FoamFile
{
    version     2.0;
    format      ascii;
    class       featureEdgeMesh;
    location    "constant/triSurface";
    object      geometry.eMesh;
}
// * * * * * * * * * * * * * * * * * * * * * * * * * * * * * * * * * * * * * //


// points:

2148
(
(0 0.05 0.05)
(0 -0.05 0.05)
(1 0.05 0.05)
(1 -0.05 0.05)
(0 -0.05 -0.05)
(0 0.05 -0.05)
(1 -0.05 -0.05)
(1 0.05 -0.05)
(0.195936 0.0184743 0.05)
(0.191238 0.0167642 0.05)
(0.204064 -0.0184743 0.05)
(0.208762 -0.0167642 0.05)
(0.204064 -0.0184743 -0.05)
(0.191238 0.0167642 -0.05)
(0.195936 0.0184743 -0.05)
(0.208762 -0.0167642 -0.05)
(0 0.0191894 0.05)
(0 0.0184743 0.05)
(0 0.0199797 0.05)
(0 0.0208529 0.05)
(0 0.0218179 0.05)
(0 0.0228842 0.05)
(0 0.0240625 0.05)
(0 0.0253646 0.05)
(0 0.0268034 0.05)
(0 0.0283933 0.05)
(0 0.0301503 0.05)
(0 0.0320917 0.05)
(0 0.0342371 0.05)
(0 0.036219 0.05)
(0 0.0380274 0.05)
(0 0.0396777 0.05)
(0 0.0411835 0.05)
(0 0.0425577 0.05)
(0 0.0438116 0.05)
(0 0.0449558 0.05)
(0 0.0459999 0.05)
(0 0.0469527 0.05)
(0 0.0478221 0.05)
(0 0.0486154 0.05)
(0 0.0493394 0.05)
(0.00413428 0.05 0.05)
(0.00821 0.05 0.05)
(0.012228 0.05 0.05)
(0.016189 0.05 0.05)
(0.020094 0.05 0.05)
(0.0239436 0.05 0.05)
(0.0277387 0.05 0.05)
(0.03148 0.05 0.05)
(0.0351683 0.05 0.05)
(0.0388044 0.05 0.05)
(0.042389 0.05 0.05)
(0.0459228 0.05 0.05)
(0.0494065 0.05 0.05)
(0.0528408 0.05 0.05)
(0.0562266 0.05 0.05)
(0.0595643 0.05 0.05)
(0.0628548 0.05 0.05)
(0.0660987 0.05 0.05)
(0.0692966 0.05 0.05)
(0.0724492 0.05 0.05)
(0.0755571 0.05 0.05)
(0.078621 0.05 0.05)
(0.0816415 0.05 0.05)
(0.0846192 0.05 0.05)
(0.0875548 0.05 0.05)
(0.0904487 0.05 0.05)
(0.0933017 0.05 0.05)
(0.0961142 0.05 0.05)
(0.0988869 0.05 0.05)
(0.10162 0.05 0.05)
(0.104315 0.05 0.05)
(0.106972 0.05 0.05)
(0.10959 0.05 0.05)
(0.112172 0.05 0.05)
(0.114717 0.05 0.05)
(0.117227 0.05 0.05)
(0.1197 0.05 0.05)
(0.122139 0.05 0.05)
(0.124543 0.05 0.05)
(0.126913 0.05 0.05)
(0.129249 0.05 0.05)
(0.131552 0.05 0.05)
(0.133823 0.05 0.05)
(0.136062 0.05 0.05)
(0.138268 0.05 0.05)
(0.140444 0.05 0.05)
(0.142589 0.05 0.05)
(0.144703 0.05 0.05)
(0.146787 0.05 0.05)
(0.148842 0.05 0.05)
(0.150868 0.05 0.05)
(0.152865 0.05 0.05)
(0.154834 0.05 0.05)
(0.156774 0.05 0.05)
(0.158688 0.05 0.05)
(0.160574 0.05 0.05)
(0.162434 0.05 0.05)
(0.164267 0.05 0.05)
(0.166074 0.05 0.05)
(0.167856 0.05 0.05)
(0.169612 0.05 0.05)
(0.171343 0.05 0.05)
(0.17305 0.05 0.05)
(0.174733 0.05 0.05)
(0.176392 0.05 0.05)
(0.178028 0.05 0.05)
(0.17964 0.05 0.05)
(0.181229 0.05 0.05)
(0.182796 0.05 0.05)
(0.184341 0.05 0.05)
(0.185864 0.05 0.05)
(0.187365 0.05 0.05)
(0.188845 0.05 0.05)
(0.190304 0.05 0.05)
(0.191742 0.05 0.05)
(0.19316 0.05 0.05)
(0.194558 0.05 0.05)
(0.195936 0.05 0.05)
(0 0.0176192 0.05)
(0 0.0167642 0.05)
(0.193587 0.0176192 0.05)
(0 -0.0176353 0.05)
(0 -0.0184743 0.05)
(0 -0.0167963 0.05)
(0 -0.0159573 0.05)
(0 -0.0151182 0.05)
(0 -0.0142792 0.05)
(0 -0.0134402 0.05)
(0 -0.0126012 0.05)
(0 -0.0117622 0.05)
(0 -0.0109232 0.05)
(0 -0.0100842 0.05)
(0 -0.00924516 0.05)
(0 -0.00840615 0.05)
(0 -0.00756714 0.05)
(0 -0.00672813 0.05)
(0 -0.00588912 0.05)
(0 -0.00505011 0.05)
(0 -0.0042111 0.05)
(0 -0.00337208 0.05)
(0 -0.00253307 0.05)
(0 -0.00169406 0.05)
(0 -0.00085505 0.05)
(0 -1.60391e-05 0.05)
(0 0.000822972 0.05)
(0 0.00166198 0.05)
(0 0.00250099 0.05)
(0 0.00334001 0.05)
(0 0.00417902 0.05)
(0 0.00501803 0.05)
(0 0.00585704 0.05)
(0 0.00669605 0.05)
(0 0.00753506 0.05)
(0 0.00837407 0.05)
(0 0.00921308 0.05)
(0 0.0100521 0.05)
(0 0.0108911 0.05)
(0 0.0117301 0.05)
(0 0.0125691 0.05)
(0 0.0134081 0.05)
(0 0.0142472 0.05)
(0 0.0150862 0.05)
(0 0.0159252 0.05)
(0.203758 -0.0176353 0.05)
(0.203453 -0.0167963 0.05)
(0.203148 -0.0159573 0.05)
(0.202842 -0.0151182 0.05)
(0.202537 -0.0142792 0.05)
(0.202231 -0.0134402 0.05)
(0.201926 -0.0126012 0.05)
(0.201621 -0.0117622 0.05)
(0.201315 -0.0109232 0.05)
(0.20101 -0.0100842 0.05)
(0.200705 -0.00924516 0.05)
(0.200399 -0.00840615 0.05)
(0.200094 -0.00756714 0.05)
(0.199788 -0.00672813 0.05)
(0.199483 -0.00588912 0.05)
(0.199178 -0.00505011 0.05)
(0.198872 -0.0042111 0.05)
(0.198567 -0.00337208 0.05)
(0.198262 -0.00253307 0.05)
(0.197956 -0.00169406 0.05)
(0.197651 -0.00085505 0.05)
(0.197345 -1.60391e-05 0.05)
(0.19704 0.000822972 0.05)
(0.196735 0.00166198 0.05)
(0.196429 0.00250099 0.05)
(0.196124 0.00334001 0.05)
(0.195819 0.00417902 0.05)
(0.195513 0.00501803 0.05)
(0.195208 0.00585704 0.05)
(0.194902 0.00669605 0.05)
(0.194597 0.00753506 0.05)
(0.194292 0.00837407 0.05)
(0.193986 0.00921308 0.05)
(0.193681 0.0100521 0.05)
(0.193376 0.0108911 0.05)
(0.19307 0.0117301 0.05)
(0.192765 0.0125691 0.05)
(0.192459 0.0134081 0.05)
(0.192154 0.0142472 0.05)
(0.191849 0.0150862 0.05)
(0.191543 0.0159252 0.05)
(0.00430577 -0.05 0.05)
(0 -0.0492849 0.05)
(0 -0.0484946 0.05)
(0 -0.0476214 0.05)
(0 -0.0466564 0.05)
(0 -0.0455901 0.05)
(0 -0.0444118 0.05)
(0 -0.0431097 0.05)
(0 -0.0416709 0.05)
(0 -0.040081 0.05)
(0 -0.038324 0.05)
(0 -0.0363825 0.05)
(0 -0.0342371 0.05)
(0 -0.0322553 0.05)
(0 -0.0304469 0.05)
(0 -0.0287966 0.05)
(0 -0.0272907 0.05)
(0 -0.0259166 0.05)
(0 -0.0246627 0.05)
(0 -0.0235185 0.05)
(0 -0.0224744 0.05)
(0 -0.0215216 0.05)
(0 -0.0206522 0.05)
(0 -0.0198588 0.05)
(0 -0.0191349 0.05)
(0.00855054 -0.05 0.05)
(0.0127352 -0.05 0.05)
(0.0168605 -0.05 0.05)
(0.0209275 -0.05 0.05)
(0.0249368 -0.05 0.05)
(0.0288893 -0.05 0.05)
(0.0327858 -0.05 0.05)
(0.0366271 -0.05 0.05)
(0.040414 -0.05 0.05)
(0.0441472 -0.05 0.05)
(0.0478276 -0.05 0.05)
(0.0514558 -0.05 0.05)
(0.0550326 -0.05 0.05)
(0.0585588 -0.05 0.05)
(0.062035 -0.05 0.05)
(0.065462 -0.05 0.05)
(0.0688404 -0.05 0.05)
(0.0721709 -0.05 0.05)
(0.0754543 -0.05 0.05)
(0.0786911 -0.05 0.05)
(0.0818821 -0.05 0.05)
(0.0850279 -0.05 0.05)
(0.0881292 -0.05 0.05)
(0.0911865 -0.05 0.05)
(0.0942005 -0.05 0.05)
(0.0971717 -0.05 0.05)
(0.100101 -0.05 0.05)
(0.102989 -0.05 0.05)
(0.105835 -0.05 0.05)
(0.108642 -0.05 0.05)
(0.111409 -0.05 0.05)
(0.114136 -0.05 0.05)
(0.116825 -0.05 0.05)
(0.119476 -0.05 0.05)
(0.122089 -0.05 0.05)
(0.124665 -0.05 0.05)
(0.127205 -0.05 0.05)
(0.129709 -0.05 0.05)
(0.132177 -0.05 0.05)
(0.13461 -0.05 0.05)
(0.137009 -0.05 0.05)
(0.139374 -0.05 0.05)
(0.141705 -0.05 0.05)
(0.144004 -0.05 0.05)
(0.146269 -0.05 0.05)
(0.148503 -0.05 0.05)
(0.150705 -0.05 0.05)
(0.152876 -0.05 0.05)
(0.155016 -0.05 0.05)
(0.157126 -0.05 0.05)
(0.159206 -0.05 0.05)
(0.161256 -0.05 0.05)
(0.163277 -0.05 0.05)
(0.16527 -0.05 0.05)
(0.167234 -0.05 0.05)
(0.169171 -0.05 0.05)
(0.17108 -0.05 0.05)
(0.172963 -0.05 0.05)
(0.174818 -0.05 0.05)
(0.176647 -0.05 0.05)
(0.178451 -0.05 0.05)
(0.180228 -0.05 0.05)
(0.181981 -0.05 0.05)
(0.183709 -0.05 0.05)
(0.185412 -0.05 0.05)
(0.187091 -0.05 0.05)
(0.188747 -0.05 0.05)
(0.190378 -0.05 0.05)
(0.191987 -0.05 0.05)
(0.193573 -0.05 0.05)
(0.195137 -0.05 0.05)
(0.196678 -0.05 0.05)
(0.198198 -0.05 0.05)
(0.199696 -0.05 0.05)
(0.201173 -0.05 0.05)
(0.202628 -0.05 0.05)
(0.204064 -0.05 0.05)
(0.197312 0.05 0.05)
(0.198692 0.05 0.05)
(0.200077 0.05 0.05)
(0.201467 0.05 0.05)
(0.202861 0.05 0.05)
(0.204261 0.05 0.05)
(0.205665 0.05 0.05)
(0.207074 0.05 0.05)
(0.208488 0.05 0.05)
(0.209906 0.05 0.05)
(0.21133 0.05 0.05)
(0.212758 0.05 0.05)
(0.214192 0.05 0.05)
(0.21563 0.05 0.05)
(0.217073 0.05 0.05)
(0.218522 0.05 0.05)
(0.219975 0.05 0.05)
(0.221433 0.05 0.05)
(0.222896 0.05 0.05)
(0.224364 0.05 0.05)
(0.225838 0.05 0.05)
(0.227316 0.05 0.05)
(0.228799 0.05 0.05)
(0.230288 0.05 0.05)
(0.231782 0.05 0.05)
(0.23328 0.05 0.05)
(0.234784 0.05 0.05)
(0.236293 0.05 0.05)
(0.237808 0.05 0.05)
(0.239327 0.05 0.05)
(0.240852 0.05 0.05)
(0.242382 0.05 0.05)
(0.243917 0.05 0.05)
(0.245458 0.05 0.05)
(0.247004 0.05 0.05)
(0.248555 0.05 0.05)
(0.250111 0.05 0.05)
(0.251673 0.05 0.05)
(0.25324 0.05 0.05)
(0.254813 0.05 0.05)
(0.256391 0.05 0.05)
(0.257974 0.05 0.05)
(0.259563 0.05 0.05)
(0.261157 0.05 0.05)
(0.262757 0.05 0.05)
(0.264363 0.05 0.05)
(0.265973 0.05 0.05)
(0.26759 0.05 0.05)
(0.269212 0.05 0.05)
(0.270839 0.05 0.05)
(0.272472 0.05 0.05)
(0.274111 0.05 0.05)
(0.275755 0.05 0.05)
(0.277405 0.05 0.05)
(0.279061 0.05 0.05)
(0.280723 0.05 0.05)
(0.28239 0.05 0.05)
(0.284062 0.05 0.05)
(0.285741 0.05 0.05)
(0.287425 0.05 0.05)
(0.289116 0.05 0.05)
(0.290812 0.05 0.05)
(0.292513 0.05 0.05)
(0.294221 0.05 0.05)
(0.295935 0.05 0.05)
(0.297654 0.05 0.05)
(0.299379 0.05 0.05)
(0.301111 0.05 0.05)
(0.302848 0.05 0.05)
(0.304591 0.05 0.05)
(0.30634 0.05 0.05)
(0.308095 0.05 0.05)
(0.309857 0.05 0.05)
(0.311624 0.05 0.05)
(0.313397 0.05 0.05)
(0.315177 0.05 0.05)
(0.316962 0.05 0.05)
(0.318754 0.05 0.05)
(0.320552 0.05 0.05)
(0.322356 0.05 0.05)
(0.324166 0.05 0.05)
(0.325983 0.05 0.05)
(0.327806 0.05 0.05)
(0.329635 0.05 0.05)
(0.33147 0.05 0.05)
(0.333312 0.05 0.05)
(0.335159 0.05 0.05)
(0.337014 0.05 0.05)
(0.338874 0.05 0.05)
(0.340742 0.05 0.05)
(0.342615 0.05 0.05)
(0.344495 0.05 0.05)
(0.346381 0.05 0.05)
(0.348274 0.05 0.05)
(0.350174 0.05 0.05)
(0.35208 0.05 0.05)
(0.353992 0.05 0.05)
(0.355911 0.05 0.05)
(0.357837 0.05 0.05)
(0.359769 0.05 0.05)
(0.361708 0.05 0.05)
(0.363654 0.05 0.05)
(0.365606 0.05 0.05)
(0.367565 0.05 0.05)
(0.369531 0.05 0.05)
(0.371503 0.05 0.05)
(0.373483 0.05 0.05)
(0.375469 0.05 0.05)
(0.377462 0.05 0.05)
(0.379462 0.05 0.05)
(0.381468 0.05 0.05)
(0.383482 0.05 0.05)
(0.385502 0.05 0.05)
(0.38753 0.05 0.05)
(0.389564 0.05 0.05)
(0.391606 0.05 0.05)
(0.393654 0.05 0.05)
(0.39571 0.05 0.05)
(0.397772 0.05 0.05)
(0.399842 0.05 0.05)
(0.401919 0.05 0.05)
(0.404002 0.05 0.05)
(0.406094 0.05 0.05)
(0.408192 0.05 0.05)
(0.410297 0.05 0.05)
(0.41241 0.05 0.05)
(0.41453 0.05 0.05)
(0.416657 0.05 0.05)
(0.418792 0.05 0.05)
(0.420934 0.05 0.05)
(0.423083 0.05 0.05)
(0.42524 0.05 0.05)
(0.427404 0.05 0.05)
(0.429575 0.05 0.05)
(0.431754 0.05 0.05)
(0.433941 0.05 0.05)
(0.436135 0.05 0.05)
(0.438337 0.05 0.05)
(0.440546 0.05 0.05)
(0.442762 0.05 0.05)
(0.444987 0.05 0.05)
(0.447219 0.05 0.05)
(0.449458 0.05 0.05)
(0.451706 0.05 0.05)
(0.453961 0.05 0.05)
(0.456224 0.05 0.05)
(0.458495 0.05 0.05)
(0.460773 0.05 0.05)
(0.463059 0.05 0.05)
(0.465354 0.05 0.05)
(0.467656 0.05 0.05)
(0.469966 0.05 0.05)
(0.472283 0.05 0.05)
(0.474609 0.05 0.05)
(0.476943 0.05 0.05)
(0.479285 0.05 0.05)
(0.481635 0.05 0.05)
(0.483993 0.05 0.05)
(0.486359 0.05 0.05)
(0.488734 0.05 0.05)
(0.491116 0.05 0.05)
(0.493507 0.05 0.05)
(0.495906 0.05 0.05)
(0.498313 0.05 0.05)
(0.500728 0.05 0.05)
(0.503152 0.05 0.05)
(0.505584 0.05 0.05)
(0.508024 0.05 0.05)
(0.510473 0.05 0.05)
(0.51293 0.05 0.05)
(0.515396 0.05 0.05)
(0.51787 0.05 0.05)
(0.520353 0.05 0.05)
(0.522844 0.05 0.05)
(0.525344 0.05 0.05)
(0.527852 0.05 0.05)
(0.530369 0.05 0.05)
(0.532895 0.05 0.05)
(0.535429 0.05 0.05)
(0.537972 0.05 0.05)
(0.540524 0.05 0.05)
(0.543085 0.05 0.05)
(0.545654 0.05 0.05)
(0.548232 0.05 0.05)
(0.550819 0.05 0.05)
(0.553415 0.05 0.05)
(0.55602 0.05 0.05)
(0.558634 0.05 0.05)
(0.561257 0.05 0.05)
(0.563889 0.05 0.05)
(0.56653 0.05 0.05)
(0.56918 0.05 0.05)
(0.571839 0.05 0.05)
(0.574507 0.05 0.05)
(0.577185 0.05 0.05)
(0.579871 0.05 0.05)
(0.582567 0.05 0.05)
(0.585272 0.05 0.05)
(0.587987 0.05 0.05)
(0.590711 0.05 0.05)
(0.593444 0.05 0.05)
(0.596186 0.05 0.05)
(0.598938 0.05 0.05)
(0.6017 0.05 0.05)
(0.604471 0.05 0.05)
(0.607251 0.05 0.05)
(0.610041 0.05 0.05)
(0.612841 0.05 0.05)
(0.61565 0.05 0.05)
(0.618469 0.05 0.05)
(0.621298 0.05 0.05)
(0.624136 0.05 0.05)
(0.626984 0.05 0.05)
(0.629842 0.05 0.05)
(0.63271 0.05 0.05)
(0.635588 0.05 0.05)
(0.638475 0.05 0.05)
(0.641373 0.05 0.05)
(0.64428 0.05 0.05)
(0.647197 0.05 0.05)
(0.650125 0.05 0.05)
(0.653062 0.05 0.05)
(0.65601 0.05 0.05)
(0.658968 0.05 0.05)
(0.661936 0.05 0.05)
(0.664914 0.05 0.05)
(0.667902 0.05 0.05)
(0.670901 0.05 0.05)
(0.67391 0.05 0.05)
(0.676929 0.05 0.05)
(0.679959 0.05 0.05)
(0.682999 0.05 0.05)
(0.686049 0.05 0.05)
(0.68911 0.05 0.05)
(0.692182 0.05 0.05)
(0.695264 0.05 0.05)
(0.698357 0.05 0.05)
(0.70146 0.05 0.05)
(0.704574 0.05 0.05)
(0.707699 0.05 0.05)
(0.710834 0.05 0.05)
(0.713981 0.05 0.05)
(0.717138 0.05 0.05)
(0.720306 0.05 0.05)
(0.723485 0.05 0.05)
(0.726674 0.05 0.05)
(0.729875 0.05 0.05)
(0.733087 0.05 0.05)
(0.73631 0.05 0.05)
(0.739544 0.05 0.05)
(0.742789 0.05 0.05)
(0.746045 0.05 0.05)
(0.749312 0.05 0.05)
(0.752591 0.05 0.05)
(0.755881 0.05 0.05)
(0.759182 0.05 0.05)
(0.762494 0.05 0.05)
(0.765818 0.05 0.05)
(0.769154 0.05 0.05)
(0.772501 0.05 0.05)
(0.775859 0.05 0.05)
(0.779229 0.05 0.05)
(0.78261 0.05 0.05)
(0.786004 0.05 0.05)
(0.789408 0.05 0.05)
(0.792825 0.05 0.05)
(0.796253 0.05 0.05)
(0.799693 0.05 0.05)
(0.803145 0.05 0.05)
(0.806609 0.05 0.05)
(0.810084 0.05 0.05)
(0.813572 0.05 0.05)
(0.817072 0.05 0.05)
(0.820583 0.05 0.05)
(0.824107 0.05 0.05)
(0.827643 0.05 0.05)
(0.831191 0.05 0.05)
(0.834751 0.05 0.05)
(0.838323 0.05 0.05)
(0.841908 0.05 0.05)
(0.845505 0.05 0.05)
(0.849115 0.05 0.05)
(0.852737 0.05 0.05)
(0.856371 0.05 0.05)
(0.860018 0.05 0.05)
(0.863677 0.05 0.05)
(0.867349 0.05 0.05)
(0.871033 0.05 0.05)
(0.874731 0.05 0.05)
(0.878441 0.05 0.05)
(0.882163 0.05 0.05)
(0.885899 0.05 0.05)
(0.889647 0.05 0.05)
(0.893408 0.05 0.05)
(0.897182 0.05 0.05)
(0.90097 0.05 0.05)
(0.90477 0.05 0.05)
(0.908583 0.05 0.05)
(0.912409 0.05 0.05)
(0.916249 0.05 0.05)
(0.920102 0.05 0.05)
(0.923968 0.05 0.05)
(0.927847 0.05 0.05)
(0.931739 0.05 0.05)
(0.935645 0.05 0.05)
(0.939565 0.05 0.05)
(0.943498 0.05 0.05)
(0.947444 0.05 0.05)
(0.951404 0.05 0.05)
(0.955378 0.05 0.05)
(0.959365 0.05 0.05)
(0.963366 0.05 0.05)
(0.967381 0.05 0.05)
(0.971409 0.05 0.05)
(0.975452 0.05 0.05)
(0.979508 0.05 0.05)
(0.983578 0.05 0.05)
(0.987663 0.05 0.05)
(0.991761 0.05 0.05)
(0.995873 0.05 0.05)
(1 0.0184743 0.05)
(1 0.0191894 0.05)
(1 0.0199797 0.05)
(1 0.0208529 0.05)
(1 0.0218179 0.05)
(1 0.0228842 0.05)
(1 0.0240625 0.05)
(1 0.0253646 0.05)
(1 0.0268034 0.05)
(1 0.0283933 0.05)
(1 0.0301503 0.05)
(1 0.0320917 0.05)
(1 0.0342371 0.05)
(1 0.036219 0.05)
(1 0.0380274 0.05)
(1 0.0396777 0.05)
(1 0.0411835 0.05)
(1 0.0425577 0.05)
(1 0.0438116 0.05)
(1 0.0449558 0.05)
(1 0.0459999 0.05)
(1 0.0469527 0.05)
(1 0.0478221 0.05)
(1 0.0486154 0.05)
(1 0.0493394 0.05)
(0.208457 -0.0159252 0.05)
(0.208151 -0.0150862 0.05)
(0.207846 -0.0142472 0.05)
(0.207541 -0.0134081 0.05)
(0.207235 -0.0125691 0.05)
(0.20693 -0.0117301 0.05)
(0.206624 -0.0108911 0.05)
(0.206319 -0.0100521 0.05)
(0.206014 -0.00921308 0.05)
(0.205708 -0.00837407 0.05)
(0.205403 -0.00753506 0.05)
(0.205098 -0.00669605 0.05)
(0.204792 -0.00585704 0.05)
(0.204487 -0.00501803 0.05)
(0.204181 -0.00417902 0.05)
(0.203876 -0.00334001 0.05)
(0.203571 -0.00250099 0.05)
(0.203265 -0.00166198 0.05)
(0.20296 -0.000822972 0.05)
(0.202655 1.60391e-05 0.05)
(0.202349 0.00085505 0.05)
(0.202044 0.00169406 0.05)
(0.201738 0.00253307 0.05)
(0.201433 0.00337208 0.05)
(0.201128 0.0042111 0.05)
(0.200822 0.00505011 0.05)
(0.200517 0.00588912 0.05)
(0.200212 0.00672813 0.05)
(0.199906 0.00756714 0.05)
(0.199601 0.00840615 0.05)
(0.199295 0.00924516 0.05)
(0.19899 0.0100842 0.05)
(0.198685 0.0109232 0.05)
(0.198379 0.0117622 0.05)
(0.198074 0.0126012 0.05)
(0.197769 0.0134402 0.05)
(0.197463 0.0142792 0.05)
(0.197158 0.0151182 0.05)
(0.196852 0.0159573 0.05)
(0.196547 0.0167963 0.05)
(0.196242 0.0176353 0.05)
(1 -0.0167642 0.05)
(1 -0.0159252 0.05)
(1 -0.0150862 0.05)
(1 -0.0142472 0.05)
(1 -0.0134081 0.05)
(1 -0.0125691 0.05)
(1 -0.0117301 0.05)
(1 -0.0108911 0.05)
(1 -0.0100521 0.05)
(1 -0.00921308 0.05)
(1 -0.00837407 0.05)
(1 -0.00753506 0.05)
(1 -0.00669605 0.05)
(1 -0.00585704 0.05)
(1 -0.00501803 0.05)
(1 -0.00417902 0.05)
(1 -0.00334001 0.05)
(1 -0.00250099 0.05)
(1 -0.00166198 0.05)
(1 -0.000822972 0.05)
(1 1.60391e-05 0.05)
(1 0.00085505 0.05)
(1 0.00169406 0.05)
(1 0.00253307 0.05)
(1 0.00337208 0.05)
(1 0.0042111 0.05)
(1 0.00505011 0.05)
(1 0.00588912 0.05)
(1 0.00672813 0.05)
(1 0.00756714 0.05)
(1 0.00840615 0.05)
(1 0.00924516 0.05)
(1 0.0100842 0.05)
(1 0.0109232 0.05)
(1 0.0117622 0.05)
(1 0.0126012 0.05)
(1 0.0134402 0.05)
(1 0.0142792 0.05)
(1 0.0151182 0.05)
(1 0.0159573 0.05)
(1 0.0167963 0.05)
(1 0.0176353 0.05)
(0.206413 -0.0176192 0.05)
(1 -0.0184743 0.05)
(1 -0.0176192 0.05)
(0.205425 -0.05 0.05)
(0.206792 -0.05 0.05)
(0.208163 -0.05 0.05)
(0.209538 -0.05 0.05)
(0.210919 -0.05 0.05)
(0.212304 -0.05 0.05)
(0.213694 -0.05 0.05)
(0.215089 -0.05 0.05)
(0.216488 -0.05 0.05)
(0.217892 -0.05 0.05)
(0.219302 -0.05 0.05)
(0.220716 -0.05 0.05)
(0.222135 -0.05 0.05)
(0.223558 -0.05 0.05)
(0.224987 -0.05 0.05)
(0.226421 -0.05 0.05)
(0.227859 -0.05 0.05)
(0.229302 -0.05 0.05)
(0.230751 -0.05 0.05)
(0.232204 -0.05 0.05)
(0.233663 -0.05 0.05)
(0.235126 -0.05 0.05)
(0.236594 -0.05 0.05)
(0.238068 -0.05 0.05)
(0.239547 -0.05 0.05)
(0.24103 -0.05 0.05)
(0.242519 -0.05 0.05)
(0.244013 -0.05 0.05)
(0.245512 -0.05 0.05)
(0.247016 -0.05 0.05)
(0.248525 -0.05 0.05)
(0.25004 -0.05 0.05)
(0.25156 -0.05 0.05)
(0.253084 -0.05 0.05)
(0.254615 -0.05 0.05)
(0.25615 -0.05 0.05)
(0.257691 -0.05 0.05)
(0.259237 -0.05 0.05)
(0.260788 -0.05 0.05)
(0.262345 -0.05 0.05)
(0.263907 -0.05 0.05)
(0.265474 -0.05 0.05)
(0.267047 -0.05 0.05)
(0.268625 -0.05 0.05)
(0.270209 -0.05 0.05)
(0.271798 -0.05 0.05)
(0.273393 -0.05 0.05)
(0.274993 -0.05 0.05)
(0.276598 -0.05 0.05)
(0.278209 -0.05 0.05)
(0.279826 -0.05 0.05)
(0.281448 -0.05 0.05)
(0.283076 -0.05 0.05)
(0.284709 -0.05 0.05)
(0.286348 -0.05 0.05)
(0.287993 -0.05 0.05)
(0.289643 -0.05 0.05)
(0.291299 -0.05 0.05)
(0.292961 -0.05 0.05)
(0.294628 -0.05 0.05)
(0.296301 -0.05 0.05)
(0.29798 -0.05 0.05)
(0.299664 -0.05 0.05)
(0.301355 -0.05 0.05)
(0.303051 -0.05 0.05)
(0.304753 -0.05 0.05)
(0.306461 -0.05 0.05)
(0.308175 -0.05 0.05)
(0.309894 -0.05 0.05)
(0.31162 -0.05 0.05)
(0.313351 -0.05 0.05)
(0.315089 -0.05 0.05)
(0.316832 -0.05 0.05)
(0.318582 -0.05 0.05)
(0.320337 -0.05 0.05)
(0.322099 -0.05 0.05)
(0.323866 -0.05 0.05)
(0.32564 -0.05 0.05)
(0.32742 -0.05 0.05)
(0.329205 -0.05 0.05)
(0.330997 -0.05 0.05)
(0.332796 -0.05 0.05)
(0.3346 -0.05 0.05)
(0.33641 -0.05 0.05)
(0.338227 -0.05 0.05)
(0.34005 -0.05 0.05)
(0.34188 -0.05 0.05)
(0.343715 -0.05 0.05)
(0.345557 -0.05 0.05)
(0.347405 -0.05 0.05)
(0.34926 -0.05 0.05)
(0.351121 -0.05 0.05)
(0.352988 -0.05 0.05)
(0.354862 -0.05 0.05)
(0.356742 -0.05 0.05)
(0.358629 -0.05 0.05)
(0.360522 -0.05 0.05)
(0.362422 -0.05 0.05)
(0.364328 -0.05 0.05)
(0.366241 -0.05 0.05)
(0.36816 -0.05 0.05)
(0.370086 -0.05 0.05)
(0.372018 -0.05 0.05)
(0.373958 -0.05 0.05)
(0.375904 -0.05 0.05)
(0.377856 -0.05 0.05)
(0.379815 -0.05 0.05)
(0.381782 -0.05 0.05)
(0.383754 -0.05 0.05)
(0.385734 -0.05 0.05)
(0.38772 -0.05 0.05)
(0.389714 -0.05 0.05)
(0.391714 -0.05 0.05)
(0.393721 -0.05 0.05)
(0.395734 -0.05 0.05)
(0.397755 -0.05 0.05)
(0.399783 -0.05 0.05)
(0.401818 -0.05 0.05)
(0.403859 -0.05 0.05)
(0.405908 -0.05 0.05)
(0.407964 -0.05 0.05)
(0.410027 -0.05 0.05)
(0.412097 -0.05 0.05)
(0.414174 -0.05 0.05)
(0.416258 -0.05 0.05)
(0.418349 -0.05 0.05)
(0.420448 -0.05 0.05)
(0.422554 -0.05 0.05)
(0.424667 -0.05 0.05)
(0.426787 -0.05 0.05)
(0.428914 -0.05 0.05)
(0.431049 -0.05 0.05)
(0.433192 -0.05 0.05)
(0.435341 -0.05 0.05)
(0.437498 -0.05 0.05)
(0.439663 -0.05 0.05)
(0.441834 -0.05 0.05)
(0.444014 -0.05 0.05)
(0.446201 -0.05 0.05)
(0.448395 -0.05 0.05)
(0.450597 -0.05 0.05)
(0.452806 -0.05 0.05)
(0.455023 -0.05 0.05)
(0.457248 -0.05 0.05)
(0.45948 -0.05 0.05)
(0.46172 -0.05 0.05)
(0.463968 -0.05 0.05)
(0.466223 -0.05 0.05)
(0.468487 -0.05 0.05)
(0.470758 -0.05 0.05)
(0.473036 -0.05 0.05)
(0.475323 -0.05 0.05)
(0.477618 -0.05 0.05)
(0.47992 -0.05 0.05)
(0.48223 -0.05 0.05)
(0.484548 -0.05 0.05)
(0.486875 -0.05 0.05)
(0.489209 -0.05 0.05)
(0.491551 -0.05 0.05)
(0.493901 -0.05 0.05)
(0.49626 -0.05 0.05)
(0.498626 -0.05 0.05)
(0.501001 -0.05 0.05)
(0.503384 -0.05 0.05)
(0.505775 -0.05 0.05)
(0.508174 -0.05 0.05)
(0.510581 -0.05 0.05)
(0.512997 -0.05 0.05)
(0.515421 -0.05 0.05)
(0.517854 -0.05 0.05)
(0.520294 -0.05 0.05)
(0.522744 -0.05 0.05)
(0.525201 -0.05 0.05)
(0.527667 -0.05 0.05)
(0.530142 -0.05 0.05)
(0.532625 -0.05 0.05)
(0.535116 -0.05 0.05)
(0.537616 -0.05 0.05)
(0.540125 -0.05 0.05)
(0.542642 -0.05 0.05)
(0.545168 -0.05 0.05)
(0.547703 -0.05 0.05)
(0.550247 -0.05 0.05)
(0.552799 -0.05 0.05)
(0.55536 -0.05 0.05)
(0.557929 -0.05 0.05)
(0.560508 -0.05 0.05)
(0.563095 -0.05 0.05)
(0.565692 -0.05 0.05)
(0.568297 -0.05 0.05)
(0.570911 -0.05 0.05)
(0.573534 -0.05 0.05)
(0.576167 -0.05 0.05)
(0.578808 -0.05 0.05)
(0.581458 -0.05 0.05)
(0.584118 -0.05 0.05)
(0.586787 -0.05 0.05)
(0.589464 -0.05 0.05)
(0.592151 -0.05 0.05)
(0.594848 -0.05 0.05)
(0.597553 -0.05 0.05)
(0.600268 -0.05 0.05)
(0.602992 -0.05 0.05)
(0.605726 -0.05 0.05)
(0.608469 -0.05 0.05)
(0.611221 -0.05 0.05)
(0.613983 -0.05 0.05)
(0.616754 -0.05 0.05)
(0.619535 -0.05 0.05)
(0.622326 -0.05 0.05)
(0.625126 -0.05 0.05)
(0.627935 -0.05 0.05)
(0.630755 -0.05 0.05)
(0.633584 -0.05 0.05)
(0.636423 -0.05 0.05)
(0.639271 -0.05 0.05)
(0.642129 -0.05 0.05)
(0.644998 -0.05 0.05)
(0.647876 -0.05 0.05)
(0.650763 -0.05 0.05)
(0.653661 -0.05 0.05)
(0.656569 -0.05 0.05)
(0.659487 -0.05 0.05)
(0.662415 -0.05 0.05)
(0.665353 -0.05 0.05)
(0.668301 -0.05 0.05)
(0.671259 -0.05 0.05)
(0.674227 -0.05 0.05)
(0.677206 -0.05 0.05)
(0.680194 -0.05 0.05)
(0.683194 -0.05 0.05)
(0.686203 -0.05 0.05)
(0.689223 -0.05 0.05)
(0.692253 -0.05 0.05)
(0.695293 -0.05 0.05)
(0.698344 -0.05 0.05)
(0.701406 -0.05 0.05)
(0.704478 -0.05 0.05)
(0.70756 -0.05 0.05)
(0.710653 -0.05 0.05)
(0.713757 -0.05 0.05)
(0.716872 -0.05 0.05)
(0.719997 -0.05 0.05)
(0.723133 -0.05 0.05)
(0.72628 -0.05 0.05)
(0.729437 -0.05 0.05)
(0.732606 -0.05 0.05)
(0.735785 -0.05 0.05)
(0.738975 -0.05 0.05)
(0.742176 -0.05 0.05)
(0.745389 -0.05 0.05)
(0.748612 -0.05 0.05)
(0.751846 -0.05 0.05)
(0.755092 -0.05 0.05)
(0.758348 -0.05 0.05)
(0.761616 -0.05 0.05)
(0.764895 -0.05 0.05)
(0.768185 -0.05 0.05)
(0.771487 -0.05 0.05)
(0.7748 -0.05 0.05)
(0.778125 -0.05 0.05)
(0.78146 -0.05 0.05)
(0.784808 -0.05 0.05)
(0.788167 -0.05 0.05)
(0.791537 -0.05 0.05)
(0.794919 -0.05 0.05)
(0.798313 -0.05 0.05)
(0.801718 -0.05 0.05)
(0.805135 -0.05 0.05)
(0.808564 -0.05 0.05)
(0.812004 -0.05 0.05)
(0.815456 -0.05 0.05)
(0.818921 -0.05 0.05)
(0.822397 -0.05 0.05)
(0.825885 -0.05 0.05)
(0.829385 -0.05 0.05)
(0.832897 -0.05 0.05)
(0.836421 -0.05 0.05)
(0.839958 -0.05 0.05)
(0.843506 -0.05 0.05)
(0.847067 -0.05 0.05)
(0.85064 -0.05 0.05)
(0.854225 -0.05 0.05)
(0.857823 -0.05 0.05)
(0.861433 -0.05 0.05)
(0.865055 -0.05 0.05)
(0.86869 -0.05 0.05)
(0.872337 -0.05 0.05)
(0.875997 -0.05 0.05)
(0.879669 -0.05 0.05)
(0.883354 -0.05 0.05)
(0.887052 -0.05 0.05)
(0.890763 -0.05 0.05)
(0.894486 -0.05 0.05)
(0.898222 -0.05 0.05)
(0.901971 -0.05 0.05)
(0.905732 -0.05 0.05)
(0.909507 -0.05 0.05)
(0.913295 -0.05 0.05)
(0.917095 -0.05 0.05)
(0.920909 -0.05 0.05)
(0.924736 -0.05 0.05)
(0.928576 -0.05 0.05)
(0.932429 -0.05 0.05)
(0.936296 -0.05 0.05)
(0.940176 -0.05 0.05)
(0.944069 -0.05 0.05)
(0.947975 -0.05 0.05)
(0.951895 -0.05 0.05)
(0.955829 -0.05 0.05)
(0.959776 -0.05 0.05)
(0.963736 -0.05 0.05)
(0.967711 -0.05 0.05)
(0.971698 -0.05 0.05)
(0.9757 -0.05 0.05)
(0.979715 -0.05 0.05)
(0.983744 -0.05 0.05)
(0.987787 -0.05 0.05)
(0.991844 -0.05 0.05)
(0.995915 -0.05 0.05)
(1 -0.0492849 0.05)
(1 -0.0484946 0.05)
(1 -0.0476214 0.05)
(1 -0.0466564 0.05)
(1 -0.0455901 0.05)
(1 -0.0444118 0.05)
(1 -0.0431097 0.05)
(1 -0.0416709 0.05)
(1 -0.040081 0.05)
(1 -0.038324 0.05)
(1 -0.0363825 0.05)
(1 -0.0342371 0.05)
(1 -0.0322553 0.05)
(1 -0.0304469 0.05)
(1 -0.0287966 0.05)
(1 -0.0272907 0.05)
(1 -0.0259166 0.05)
(1 -0.0246627 0.05)
(1 -0.0235185 0.05)
(1 -0.0224744 0.05)
(1 -0.0215216 0.05)
(1 -0.0206522 0.05)
(1 -0.0198588 0.05)
(1 -0.0191349 0.05)
(0 -0.0492849 -0.05)
(0.00430577 -0.05 -0.05)
(0 -0.0484946 -0.05)
(0 -0.0476214 -0.05)
(0 -0.0466564 -0.05)
(0 -0.0455901 -0.05)
(0 -0.0444118 -0.05)
(0 -0.0431097 -0.05)
(0 -0.0416709 -0.05)
(0 -0.040081 -0.05)
(0 -0.038324 -0.05)
(0 -0.0363825 -0.05)
(0 -0.0342371 -0.05)
(0 -0.0322553 -0.05)
(0 -0.0304469 -0.05)
(0 -0.0287966 -0.05)
(0 -0.0272907 -0.05)
(0 -0.0259166 -0.05)
(0 -0.0246627 -0.05)
(0 -0.0235185 -0.05)
(0 -0.0224744 -0.05)
(0 -0.0215216 -0.05)
(0 -0.0206522 -0.05)
(0 -0.0198588 -0.05)
(0 -0.0191349 -0.05)
(0 -0.0184743 -0.05)
(0.00855054 -0.05 -0.05)
(0.0127352 -0.05 -0.05)
(0.0168605 -0.05 -0.05)
(0.0209275 -0.05 -0.05)
(0.0249368 -0.05 -0.05)
(0.0288893 -0.05 -0.05)
(0.0327858 -0.05 -0.05)
(0.0366271 -0.05 -0.05)
(0.040414 -0.05 -0.05)
(0.0441472 -0.05 -0.05)
(0.0478276 -0.05 -0.05)
(0.0514558 -0.05 -0.05)
(0.0550326 -0.05 -0.05)
(0.0585588 -0.05 -0.05)
(0.062035 -0.05 -0.05)
(0.065462 -0.05 -0.05)
(0.0688404 -0.05 -0.05)
(0.0721709 -0.05 -0.05)
(0.0754543 -0.05 -0.05)
(0.0786911 -0.05 -0.05)
(0.0818821 -0.05 -0.05)
(0.0850279 -0.05 -0.05)
(0.0881292 -0.05 -0.05)
(0.0911865 -0.05 -0.05)
(0.0942005 -0.05 -0.05)
(0.0971717 -0.05 -0.05)
(0.100101 -0.05 -0.05)
(0.102989 -0.05 -0.05)
(0.105835 -0.05 -0.05)
(0.108642 -0.05 -0.05)
(0.111409 -0.05 -0.05)
(0.114136 -0.05 -0.05)
(0.116825 -0.05 -0.05)
(0.119476 -0.05 -0.05)
(0.122089 -0.05 -0.05)
(0.124665 -0.05 -0.05)
(0.127205 -0.05 -0.05)
(0.129709 -0.05 -0.05)
(0.132177 -0.05 -0.05)
(0.13461 -0.05 -0.05)
(0.137009 -0.05 -0.05)
(0.139374 -0.05 -0.05)
(0.141705 -0.05 -0.05)
(0.144004 -0.05 -0.05)
(0.146269 -0.05 -0.05)
(0.148503 -0.05 -0.05)
(0.150705 -0.05 -0.05)
(0.152876 -0.05 -0.05)
(0.155016 -0.05 -0.05)
(0.157126 -0.05 -0.05)
(0.159206 -0.05 -0.05)
(0.161256 -0.05 -0.05)
(0.163277 -0.05 -0.05)
(0.16527 -0.05 -0.05)
(0.167234 -0.05 -0.05)
(0.169171 -0.05 -0.05)
(0.17108 -0.05 -0.05)
(0.172963 -0.05 -0.05)
(0.174818 -0.05 -0.05)
(0.176647 -0.05 -0.05)
(0.178451 -0.05 -0.05)
(0.180228 -0.05 -0.05)
(0.181981 -0.05 -0.05)
(0.183709 -0.05 -0.05)
(0.185412 -0.05 -0.05)
(0.187091 -0.05 -0.05)
(0.188747 -0.05 -0.05)
(0.190378 -0.05 -0.05)
(0.191987 -0.05 -0.05)
(0.193573 -0.05 -0.05)
(0.195137 -0.05 -0.05)
(0.196678 -0.05 -0.05)
(0.198198 -0.05 -0.05)
(0.199696 -0.05 -0.05)
(0.201173 -0.05 -0.05)
(0.202628 -0.05 -0.05)
(0.204064 -0.05 -0.05)
(0 -0.0176353 -0.05)
(0 -0.0167963 -0.05)
(0 -0.0159573 -0.05)
(0 -0.0151182 -0.05)
(0 -0.0142792 -0.05)
(0 -0.0134402 -0.05)
(0 -0.0126012 -0.05)
(0 -0.0117622 -0.05)
(0 -0.0109232 -0.05)
(0 -0.0100842 -0.05)
(0 -0.00924516 -0.05)
(0 -0.00840615 -0.05)
(0 -0.00756714 -0.05)
(0 -0.00672813 -0.05)
(0 -0.00588912 -0.05)
(0 -0.00505011 -0.05)
(0 -0.0042111 -0.05)
(0 -0.00337208 -0.05)
(0 -0.00253307 -0.05)
(0 -0.00169406 -0.05)
(0 -0.00085505 -0.05)
(0 -1.60391e-05 -0.05)
(0 0.000822972 -0.05)
(0 0.00166198 -0.05)
(0 0.00250099 -0.05)
(0 0.00334001 -0.05)
(0 0.00417902 -0.05)
(0 0.00501803 -0.05)
(0 0.00585704 -0.05)
(0 0.00669605 -0.05)
(0 0.00753506 -0.05)
(0 0.00837407 -0.05)
(0 0.00921308 -0.05)
(0 0.0100521 -0.05)
(0 0.0108911 -0.05)
(0 0.0117301 -0.05)
(0 0.0125691 -0.05)
(0 0.0134081 -0.05)
(0 0.0142472 -0.05)
(0 0.0150862 -0.05)
(0 0.0159252 -0.05)
(0 0.0167642 -0.05)
(0.203758 -0.0176353 -0.05)
(0.203453 -0.0167963 -0.05)
(0.203148 -0.0159573 -0.05)
(0.202842 -0.0151182 -0.05)
(0.202537 -0.0142792 -0.05)
(0.202231 -0.0134402 -0.05)
(0.201926 -0.0126012 -0.05)
(0.201621 -0.0117622 -0.05)
(0.201315 -0.0109232 -0.05)
(0.20101 -0.0100842 -0.05)
(0.200705 -0.00924516 -0.05)
(0.200399 -0.00840615 -0.05)
(0.200094 -0.00756714 -0.05)
(0.199788 -0.00672813 -0.05)
(0.199483 -0.00588912 -0.05)
(0.199178 -0.00505011 -0.05)
(0.198872 -0.0042111 -0.05)
(0.198567 -0.00337208 -0.05)
(0.198262 -0.00253307 -0.05)
(0.197956 -0.00169406 -0.05)
(0.197651 -0.00085505 -0.05)
(0.197345 -1.60391e-05 -0.05)
(0.19704 0.000822972 -0.05)
(0.196735 0.00166198 -0.05)
(0.196429 0.00250099 -0.05)
(0.196124 0.00334001 -0.05)
(0.195819 0.00417902 -0.05)
(0.195513 0.00501803 -0.05)
(0.195208 0.00585704 -0.05)
(0.194902 0.00669605 -0.05)
(0.194597 0.00753506 -0.05)
(0.194292 0.00837407 -0.05)
(0.193986 0.00921308 -0.05)
(0.193681 0.0100521 -0.05)
(0.193376 0.0108911 -0.05)
(0.19307 0.0117301 -0.05)
(0.192765 0.0125691 -0.05)
(0.192459 0.0134081 -0.05)
(0.192154 0.0142472 -0.05)
(0.191849 0.0150862 -0.05)
(0.191543 0.0159252 -0.05)
(0 0.0176192 -0.05)
(0 0.0184743 -0.05)
(0.193587 0.0176192 -0.05)
(0 0.0191894 -0.05)
(0 0.0199797 -0.05)
(0 0.0208529 -0.05)
(0 0.0218179 -0.05)
(0 0.0228842 -0.05)
(0 0.0240625 -0.05)
(0 0.0253646 -0.05)
(0 0.0268034 -0.05)
(0 0.0283933 -0.05)
(0 0.0301503 -0.05)
(0 0.0320917 -0.05)
(0 0.0342371 -0.05)
(0 0.036219 -0.05)
(0 0.0380274 -0.05)
(0 0.0396777 -0.05)
(0 0.0411835 -0.05)
(0 0.0425577 -0.05)
(0 0.0438116 -0.05)
(0 0.0449558 -0.05)
(0 0.0459999 -0.05)
(0 0.0469527 -0.05)
(0 0.0478221 -0.05)
(0 0.0486154 -0.05)
(0 0.0493394 -0.05)
(0.00413428 0.05 -0.05)
(0.00821 0.05 -0.05)
(0.012228 0.05 -0.05)
(0.016189 0.05 -0.05)
(0.020094 0.05 -0.05)
(0.0239436 0.05 -0.05)
(0.0277387 0.05 -0.05)
(0.03148 0.05 -0.05)
(0.0351683 0.05 -0.05)
(0.0388044 0.05 -0.05)
(0.042389 0.05 -0.05)
(0.0459228 0.05 -0.05)
(0.0494065 0.05 -0.05)
(0.0528408 0.05 -0.05)
(0.0562266 0.05 -0.05)
(0.0595643 0.05 -0.05)
(0.0628548 0.05 -0.05)
(0.0660987 0.05 -0.05)
(0.0692966 0.05 -0.05)
(0.0724492 0.05 -0.05)
(0.0755571 0.05 -0.05)
(0.078621 0.05 -0.05)
(0.0816415 0.05 -0.05)
(0.0846192 0.05 -0.05)
(0.0875548 0.05 -0.05)
(0.0904487 0.05 -0.05)
(0.0933017 0.05 -0.05)
(0.0961142 0.05 -0.05)
(0.0988869 0.05 -0.05)
(0.10162 0.05 -0.05)
(0.104315 0.05 -0.05)
(0.106972 0.05 -0.05)
(0.10959 0.05 -0.05)
(0.112172 0.05 -0.05)
(0.114717 0.05 -0.05)
(0.117227 0.05 -0.05)
(0.1197 0.05 -0.05)
(0.122139 0.05 -0.05)
(0.124543 0.05 -0.05)
(0.126913 0.05 -0.05)
(0.129249 0.05 -0.05)
(0.131552 0.05 -0.05)
(0.133823 0.05 -0.05)
(0.136062 0.05 -0.05)
(0.138268 0.05 -0.05)
(0.140444 0.05 -0.05)
(0.142589 0.05 -0.05)