/*--------------------------------*- C++ -*----------------------------------*\
| =========                 |                                                 |
| \\      /  F ield         | OpenFOAM: The Open Source CFD Toolbox           |
|  \\    /   O peration     | Version:  4.x                                   |
|   \\  /    A nd           | Web:      www.OpenFOAM.org                      |
|    \\/     M anipulation  |                                                 |
\*---------------------------------------------------------------------------*/
FoamFile
{
    version     2.0;
    format      ascii;
    class       dictionary;
    object      fvSolution;
}
// * * * * * * * * * * * * * * * * * * * * * * * * * * * * * * * * * * * * * //

solvers
{
    p
    {
        solver           GAMG;
        tolerance        1e-6;
        relTol           0.001;
        smoother         GaussSeidel;
    }
    pFinal
    {
        solver           GAMG;
        tolerance        1e-7;
        smoother         GaussSeidel;
    }


    U
    {
        solver           smoothSolver;
        smoother         GaussSeidel;
        tolerance        1e-8;
        relTol           0.1;
        nSweeps          1;
    }
    UFinal
    {
        solver           smoothSolver;
        smoother         GaussSeidel;
        tolerance        1e-8;
        nSweeps          1;
    }


    k
    {
        solver           smoothSolver;
        smoother         GaussSeidel;
        tolerance        1e-8;
        nSweeps          1;
    }

    omega
    {
        solver           smoothSolver;
        smoother         GaussSeidel;
        tolerance        1e-8;
        nSweeps          1;
    }
}



PISO
{
    nNonOrthogonalCorrectors 1;
    nCorrectors 2;
}

relaxationFactors
{
}

cache
{
    grad(U);
}

// ************************************************************************* //
