/*--------------------------------*- C++ -*----------------------------------*\
  =========                 |
  \\      /  F ield         | OpenFOAM: The Open Source CFD Toolbox
   \\    /   O peration     | Website:  https://openfoam.org
    \\  /    A nd           | Version:  7
     \\/     M anipulation  |
\*---------------------------------------------------------------------------*/
FoamFile
{
    version     2.0;
    format      ascii;
    class       extendedFeatureEdgeMesh;
    location    "constant/extendedFeatureEdgeMesh";
    object      geometry.extendedFeatureEdgeMesh;
}
// * * * * * * * * * * * * * * * * * * * * * * * * * * * * * * * * * * * * * //

// points

3356
(
(0 1 -0.05)
(0 1 0.05)
(15 1 -0.05)
(15 1 0.05)
(0 -1 -0.05)
(0 -1 0.05)
(15 -1 -0.05)
(15 -1 0.05)
(3.90735 -0.23752 -0.05)
(3.99417 0.254884 -0.05)
(3.90735 -0.23752 0.05)
(3.99417 0.254884 0.05)
(4.09265 0.23752 -0.05)
(4.09265 0.23752 0.05)
(4.00583 -0.254884 -0.05)
(4.00583 -0.254884 0.05)
(0 -0.23752 -0.05)
(0 -0.229174 -0.05)
(0 -0.220828 -0.05)
(0 -0.212482 -0.05)
(0 -0.204136 -0.05)
(0 -0.19579 -0.05)
(0 -0.187445 -0.05)
(0 -0.179099 -0.05)
(0 -0.170753 -0.05)
(0 -0.162407 -0.05)
(0 -0.154061 -0.05)
(0 -0.145715 -0.05)
(0 -0.13737 -0.05)
(0 -0.129024 -0.05)
(0 -0.120678 -0.05)
(0 -0.112332 -0.05)
(0 -0.103986 -0.05)
(0 -0.0956404 -0.05)
(0 -0.0872946 -0.05)
(0 -0.0789488 -0.05)
(0 -0.070603 -0.05)
(0 -0.0622571 -0.05)
(0 -0.0539113 -0.05)
(0 -0.0455655 -0.05)
(0 -0.0372196 -0.05)
(0 -0.0288738 -0.05)
(0 -0.020528 -0.05)
(0 -0.0121822 -0.05)
(0 -0.00383633 -0.05)
(0 0.00450949 -0.05)
(0 0.0128553 -0.05)
(0 0.0212012 -0.05)
(0 0.029547 -0.05)
(0 0.0378928 -0.05)
(0 0.0462386 -0.05)
(0 0.0545845 -0.05)
(0 0.0629303 -0.05)
(0 0.0712761 -0.05)
(0 0.079622 -0.05)
(0 0.0879678 -0.05)
(0 0.0963136 -0.05)
(0 0.104659 -0.05)
(0 0.113005 -0.05)
(0 0.121351 -0.05)
(0 0.129697 -0.05)
(0 0.138043 -0.05)
(0 0.146389 -0.05)
(0 0.154734 -0.05)
(0 0.16308 -0.05)
(0 0.171426 -0.05)
(0 0.179772 -0.05)
(0 0.188118 -0.05)
(0 0.196464 -0.05)
(0 0.204809 -0.05)
(0 0.213155 -0.05)
(0 0.221501 -0.05)
(0 0.229847 -0.05)
(0 0.238193 -0.05)
(0 0.246539 -0.05)
(0 0.254884 -0.05)
(3.90882 -0.229174 -0.05)
(3.91029 -0.220828 -0.05)
(3.91176 -0.212482 -0.05)
(3.91323 -0.204136 -0.05)
(3.91471 -0.19579 -0.05)
(3.91618 -0.187445 -0.05)
(3.91765 -0.179099 -0.05)
(3.91912 -0.170753 -0.05)
(3.92059 -0.162407 -0.05)
(3.92206 -0.154061 -0.05)
(3.92354 -0.145715 -0.05)
(3.92501 -0.13737 -0.05)
(3.92648 -0.129024 -0.05)
(3.92795 -0.120678 -0.05)
(3.92942 -0.112332 -0.05)
(3.93089 -0.103986 -0.05)
(3.93236 -0.0956404 -0.05)
(3.93384 -0.0872946 -0.05)
(3.93531 -0.0789488 -0.05)
(3.93678 -0.070603 -0.05)
(3.93825 -0.0622571 -0.05)
(3.93972 -0.0539113 -0.05)
(3.94119 -0.0455655 -0.05)
(3.94267 -0.0372196 -0.05)
(3.94414 -0.0288738 -0.05)
(3.94561 -0.020528 -0.05)
(3.94708 -0.0121822 -0.05)
(3.94855 -0.00383633 -0.05)
(3.95002 0.00450949 -0.05)
(3.9515 0.0128553 -0.05)
(3.95297 0.0212012 -0.05)
(3.95444 0.029547 -0.05)
(3.95591 0.0378928 -0.05)
(3.95738 0.0462386 -0.05)
(3.95885 0.0545845 -0.05)
(3.96032 0.0629303 -0.05)
(3.9618 0.0712761 -0.05)
(3.96327 0.079622 -0.05)
(3.96474 0.0879678 -0.05)
(3.96621 0.0963136 -0.05)
(3.96768 0.104659 -0.05)
(3.96915 0.113005 -0.05)
(3.97063 0.121351 -0.05)
(3.9721 0.129697 -0.05)
(3.97357 0.138043 -0.05)
(3.97504 0.146389 -0.05)
(3.97651 0.154734 -0.05)
(3.97798 0.16308 -0.05)
(3.97946 0.171426 -0.05)
(3.98093 0.179772 -0.05)
(3.9824 0.188118 -0.05)
(3.98387 0.196464 -0.05)
(3.98534 0.204809 -0.05)
(3.98681 0.213155 -0.05)
(3.98829 0.221501 -0.05)
(3.98976 0.229847 -0.05)
(3.99123 0.238193 -0.05)
(3.9927 0.246539 -0.05)
(0 -0.229174 0.05)
(0 -0.23752 0.05)
(0 -0.220828 0.05)
(0 -0.212482 0.05)
(0 -0.204136 0.05)
(0 -0.19579 0.05)
(0 -0.187445 0.05)
(0 -0.179099 0.05)
(0 -0.170753 0.05)
(0 -0.162407 0.05)
(0 -0.154061 0.05)
(0 -0.145715 0.05)
(0 -0.13737 0.05)
(0 -0.129024 0.05)
(0 -0.120678 0.05)
(0 -0.112332 0.05)
(0 -0.103986 0.05)
(0 -0.0956404 0.05)
(0 -0.0872946 0.05)
(0 -0.0789488 0.05)
(0 -0.070603 0.05)
(0 -0.0622571 0.05)
(0 -0.0539113 0.05)
(0 -0.0455655 0.05)
(0 -0.0372196 0.05)
(0 -0.0288738 0.05)
(0 -0.020528 0.05)
(0 -0.0121822 0.05)
(0 -0.00383633 0.05)
(0 0.00450949 0.05)
(0 0.0128553 0.05)
(0 0.0212012 0.05)
(0 0.029547 0.05)
(0 0.0378928 0.05)
(0 0.0462386 0.05)
(0 0.0545845 0.05)
(0 0.0629303 0.05)
(0 0.0712761 0.05)
(0 0.079622 0.05)
(0 0.0879678 0.05)
(0 0.0963136 0.05)
(0 0.104659 0.05)
(0 0.113005 0.05)
(0 0.121351 0.05)
(0 0.129697 0.05)
(0 0.138043 0.05)
(0 0.146389 0.05)
(0 0.154734 0.05)
(0 0.16308 0.05)
(0 0.171426 0.05)
(0 0.179772 0.05)
(0 0.188118 0.05)
(0 0.196464 0.05)
(0 0.204809 0.05)
(0 0.213155 0.05)
(0 0.221501 0.05)
(0 0.229847 0.05)
(0 0.238193 0.05)
(0 0.246539 0.05)
(0 0.254884 0.05)
(3.90882 -0.229174 0.05)
(3.91029 -0.220828 0.05)
(3.91176 -0.212482 0.05)
(3.91323 -0.204136 0.05)
(3.91471 -0.19579 0.05)
(3.91618 -0.187445 0.05)
(3.91765 -0.179099 0.05)
(3.91912 -0.170753 0.05)
(3.92059 -0.162407 0.05)
(3.92206 -0.154061 0.05)
(3.92354 -0.145715 0.05)
(3.92501 -0.13737 0.05)
(3.92648 -0.129024 0.05)
(3.92795 -0.120678 0.05)
(3.92942 -0.112332 0.05)
(3.93089 -0.103986 0.05)
(3.93236 -0.0956404 0.05)
(3.93384 -0.0872946 0.05)
(3.93531 -0.0789488 0.05)
(3.93678 -0.070603 0.05)
(3.93825 -0.0622571 0.05)
(3.93972 -0.0539113 0.05)
(3.94119 -0.0455655 0.05)
(3.94267 -0.0372196 0.05)
(3.94414 -0.0288738 0.05)
(3.94561 -0.020528 0.05)
(3.94708 -0.0121822 0.05)
(3.94855 -0.00383633 0.05)
(3.95002 0.00450949 0.05)
(3.9515 0.0128553 0.05)
(3.95297 0.0212012 0.05)
(3.95444 0.029547 0.05)
(3.95591 0.0378928 0.05)
(3.95738 0.0462386 0.05)
(3.95885 0.0545845 0.05)
(3.96032 0.0629303 0.05)
(3.9618 0.0712761 0.05)
(3.96327 0.079622 0.05)
(3.96474 0.0879678 0.05)
(3.96621 0.0963136 0.05)
(3.96768 0.104659 0.05)
(3.96915 0.113005 0.05)
(3.97063 0.121351 0.05)
(3.9721 0.129697 0.05)
(3.97357 0.138043 0.05)
(3.97504 0.146389 0.05)
(3.97651 0.154734 0.05)
(3.97798 0.16308 0.05)
(3.97946 0.171426 0.05)
(3.98093 0.179772 0.05)
(3.9824 0.188118 0.05)
(3.98387 0.196464 0.05)
(3.98534 0.204809 0.05)
(3.98681 0.213155 0.05)
(3.98829 0.221501 0.05)
(3.98976 0.229847 0.05)
(3.99123 0.238193 0.05)
(3.9927 0.246539 0.05)
(0 0.261916 -0.05)
(0 0.26923 -0.05)
(0 0.276836 -0.05)
(0 0.284746 -0.05)
(0 0.292973 -0.05)
(0 0.30153 -0.05)
(0 0.310428 -0.05)
(0 0.319683 -0.05)
(0 0.329308 -0.05)
(0 0.339318 -0.05)
(0 0.349729 -0.05)
(0 0.360556 -0.05)
(0 0.371817 -0.05)
(0 0.383528 -0.05)
(0 0.395708 -0.05)
(0 0.408375 -0.05)
(0 0.42155 -0.05)
(0 0.435251 -0.05)
(0 0.449501 -0.05)
(0 0.46432 -0.05)
(0 0.479733 -0.05)
(0 0.495763 -0.05)
(0 0.512434 -0.05)
(0 0.529772 -0.05)
(0 0.547804 -0.05)
(0 0.566558 -0.05)
(0 0.586062 -0.05)
(0 0.606346 -0.05)
(0 0.627442 -0.05)
(0 0.647838 -0.05)
(0 0.667475 -0.05)
(0 0.686382 -0.05)
(0 0.704586 -0.05)
(0 0.722114 -0.05)
(0 0.73899 -0.05)
(0 0.755239 -0.05)
(0 0.770883 -0.05)
(0 0.785946 -0.05)
(0 0.80045 -0.05)
(0 0.814414 -0.05)
(0 0.827858 -0.05)
(0 0.840803 -0.05)
(0 0.853267 -0.05)
(0 0.865268 -0.05)
(0 0.876822 -0.05)
(0 0.887947 -0.05)
(0 0.898658 -0.05)
(0 0.908971 -0.05)
(0 0.918901 -0.05)
(0 0.928462 -0.05)
(0 0.937667 -0.05)
(0 0.94653 -0.05)
(0 0.955063 -0.05)
(0 0.963279 -0.05)
(0 0.97119 -0.05)
(0 0.978807 -0.05)
(0 0.986141 -0.05)
(0 0.993202 -0.05)
(0.0413708 1 -0.05)
(0.082455 1 -0.05)
(0.123255 1 -0.05)
(0.163771 1 -0.05)
(0.204007 1 -0.05)
(0.243965 1 -0.05)
(0.283645 1 -0.05)
(0.32305 1 -0.05)
(0.362183 1 -0.05)
(0.401044 1 -0.05)
(0.439636 1 -0.05)
(0.47796 1 -0.05)
(0.516019 1 -0.05)
(0.553815 1 -0.05)
(0.591348 1 -0.05)
(0.628621 1 -0.05)
(0.665636 1 -0.05)
(0.702395 1 -0.05)
(0.738899 1 -0.05)
(0.77515 1 -0.05)
(0.81115 1 -0.05)
(0.8469 1 -0.05)
(0.882402 1 -0.05)
(0.917659 1 -0.05)
(0.952671 1 -0.05)
(0.987441 1 -0.05)
(1.02197 1 -0.05)
(1.05626 1 -0.05)
(1.09031 1 -0.05)
(1.12413 1 -0.05)
(1.15771 1 -0.05)
(1.19106 1 -0.05)
(1.22418 1 -0.05)
(1.25706 1 -0.05)
(1.28972 1 -0.05)
(1.32216 1 -0.05)
(1.35437 1 -0.05)
(1.38635 1 -0.05)
(1.41812 1 -0.05)
(1.44966 1 -0.05)
(1.48099 1 -0.05)
(1.5121 1 -0.05)
(1.54299 1 -0.05)
(1.57367 1 -0.05)
(1.60414 1 -0.05)
(1.63439 1 -0.05)
(1.66444 1 -0.05)
(1.69428 1 -0.05)
(1.72391 1 -0.05)
(1.75333 1 -0.05)
(1.78255 1 -0.05)
(1.81157 1 -0.05)
(1.84039 1 -0.05)
(1.86901 1 -0.05)
(1.89743 1 -0.05)
(1.92565 1 -0.05)
(1.95368 1 -0.05)
(1.98152 1 -0.05)
(2.00916 1 -0.05)
(2.03661 1 -0.05)
(2.06386 1 -0.05)
(2.09093 1 -0.05)
(2.11782 1 -0.05)
(2.14451 1 -0.05)
(2.17102 1 -0.05)
(2.19735 1 -0.05)
(2.2235 1 -0.05)
(2.24946 1 -0.05)
(2.27525 1 -0.05)
(2.30085 1 -0.05)
(2.32628 1 -0.05)
(2.35153 1 -0.05)
(2.37661 1 -0.05)
(2.40151 1 -0.05)
(2.42624 1 -0.05)
(2.4508 1 -0.05)
(2.47519 1 -0.05)
(2.49941 1 -0.05)
(2.52346 1 -0.05)
(2.54735 1 -0.05)
(2.57107 1 -0.05)
(2.59462 1 -0.05)
(2.61801 1 -0.05)
(2.64124 1 -0.05)
(2.66431 1 -0.05)
(2.68722 1 -0.05)
(2.70997 1 -0.05)
(2.73257 1 -0.05)
(2.755 1 -0.05)
(2.77728 1 -0.05)
(2.79941 1 -0.05)
(2.82138 1 -0.05)
(2.84321 1 -0.05)
(2.86488 1 -0.05)
(2.8864 1 -0.05)
(2.90777 1 -0.05)
(2.92899 1 -0.05)
(2.95006 1 -0.05)
(2.97099 1 -0.05)
(2.99178 1 -0.05)
(3.01242 1 -0.05)
(3.03292 1 -0.05)
(3.05327 1 -0.05)
(3.07349 1 -0.05)
(3.09356 1 -0.05)
(3.1135 1 -0.05)
(3.13329 1 -0.05)
(3.15295 1 -0.05)
(3.17248 1 -0.05)
(3.19186 1 -0.05)
(3.21112 1 -0.05)
(3.23024 1 -0.05)
(3.24923 1 -0.05)
(3.26808 1 -0.05)
(3.28681 1 -0.05)
(3.30541 1 -0.05)
(3.32387 1 -0.05)
(3.34221 1 -0.05)
(3.36042 1 -0.05)
(3.37851 1 -0.05)
(3.39647 1 -0.05)
(3.41431 1 -0.05)
(3.43202 1 -0.05)
(3.44961 1 -0.05)
(3.46708 1 -0.05)
(3.48442 1 -0.05)
(3.50165 1 -0.05)
(3.51876 1 -0.05)
(3.53575 1 -0.05)
(3.55262 1 -0.05)
(3.56937 1 -0.05)
(3.58601 1 -0.05)
(3.60253 1 -0.05)
(3.61894 1 -0.05)
(3.63524 1 -0.05)
(3.65142 1 -0.05)
(3.66749 1 -0.05)
(3.68345 1 -0.05)
(3.6993 1 -0.05)
(3.71503 1 -0.05)
(3.73066 1 -0.05)
(3.74618 1 -0.05)
(3.7616 1 -0.05)
(3.7769 1 -0.05)
(3.7921 1 -0.05)
(3.8072 1 -0.05)
(3.82219 1 -0.05)
(3.83707 1 -0.05)
(3.85186 1 -0.05)
(3.86654 1 -0.05)
(3.88112 1 -0.05)
(3.8956 1 -0.05)
(3.90997 1 -0.05)
(3.92425 1 -0.05)
(3.93843 1 -0.05)
(3.95251 1 -0.05)
(3.96649 1 -0.05)
(3.98038 1 -0.05)
(3.99417 1 -0.05)
(0 0.261916 0.05)
(0 0.26923 0.05)
(0 0.276836 0.05)
(0 0.284746 0.05)
(0 0.292973 0.05)
(0 0.30153 0.05)
(0 0.310428 0.05)
(0 0.319683 0.05)
(0 0.329308 0.05)
(0 0.339318 0.05)
(0 0.349729 0.05)
(0 0.360556 0.05)
(0 0.371817 0.05)
(0 0.383528 0.05)
(0 0.395708 0.05)
(0 0.408375 0.05)
(0 0.42155 0.05)
(0 0.435251 0.05)
(0 0.449501 0.05)
(0 0.46432 0.05)
(0 0.479733 0.05)
(0 0.495763 0.05)
(0 0.512434 0.05)
(0 0.529772 0.05)
(0 0.547804 0.05)
(0 0.566558 0.05)
(0 0.586062 0.05)
(0 0.606346 0.05)
(0 0.627442 0.05)
(0 0.647838 0.05)
(0 0.667475 0.05)
(0 0.686382 0.05)
(0 0.704586 0.05)
(0 0.722114 0.05)
(0 0.73899 0.05)
(0 0.755239 0.05)
(0 0.770883 0.05)
(0 0.785946 0.05)
(0 0.80045 0.05)
(0 0.814414 0.05)
(0 0.827858 0.05)
(0 0.840803 0.05)
(0 0.853267 0.05)
(0 0.865268 0.05)
(0 0.876822 0.05)
(0 0.887947 0.05)
(0 0.898658 0.05)
(0 0.908971 0.05)
(0 0.918901 0.05)
(0 0.928462 0.05)
(0 0.937667 0.05)
(0 0.94653 0.05)
(0 0.955063 0.05)
(0 0.963279 0.05)
(0 0.97119 0.05)
(0 0.978807 0.05)
(0 0.986141 0.05)
(0 0.993202 0.05)
(0.0413708 1 0.05)
(0.082455 1 0.05)
(0.123255 1 0.05)
(0.163771 1 0.05)
(0.204007 1 0.05)
(0.243965 1 0.05)
(0.283645 1 0.05)
(0.32305 1 0.05)
(0.362183 1 0.05)
(0.401044 1 0.05)
(0.439636 1 0.05)
(0.47796 1 0.05)
(0.516019 1 0.05)
(0.553815 1 0.05)
(0.591348 1 0.05)
(0.628621 1 0.05)
(0.665636 1 0.05)
(0.702395 1 0.05)
(0.738899 1 0.05)
(0.77515 1 0.05)
(0.81115 1 0.05)
(0.8469 1 0.05)
(0.882402 1 0.05)
(0.917659 1 0.05)
(0.952671 1 0.05)
(0.987441 1 0.05)
(1.02197 1 0.05)
(1.05626 1 0.05)
(1.09031 1 0.05)
(1.12413 1 0.05)
(1.15771 1 0.05)
(1.19106 1 0.05)
(1.22418 1 0.05)
(1.25706 1 0.05)
(1.28972 1 0.05)
(1.32216 1 0.05)
(1.35437 1 0.05)
(1.38635 1 0.05)
(1.41812 1 0.05)
(1.44966 1 0.05)
(1.48099 1 0.05)
(1.5121 1 0.05)
(1.54299 1 0.05)
(1.57367 1 0.05)
(1.60414 1 0.05)
(1.63439 1 0.05)
(1.66444 1 0.05)
(1.69428 1 0.05)
(1.72391 1 0.05)
(1.75333 1 0.05)
(1.78255 1 0.05)
(1.81157 1 0.05)
(1.84039 1 0.05)
(1.86901 1 0.05)
(1.89743 1 0.05)
(1.92565 1 0.05)
(1.95368 1 0.05)
(1.98152 1 0.05)
(2.00916 1 0.05)
(2.03661 1 0.05)
(2.06386 1 0.05)
(2.09093 1 0.05)
(2.11782 1 0.05)
(2.14451 1 0.05)
(2.17102 1 0.05)
(2.19735 1 0.05)
(2.2235 1 0.05)
(2.24946 1 0.05)
(2.27525 1 0.05)
(2.30085 1 0.05)
(2.32628 1 0.05)
(2.35153 1 0.05)
(2.37661 1 0.05)
(2.40151 1 0.05)
(2.42624 1 0.05)
(2.4508 1 0.05)
(2.47519 1 0.05)
(2.49941 1 0.05)
(2.52346 1 0.05)
(2.54735 1 0.05)
(2.57107 1 0.05)
(2.59462 1 0.05)
(2.61801 1 0.05)
(2.64124 1 0.05)
(2.66431 1 0.05)
(2.68722 1 0.05)
(2.70997 1 0.05)
(2.73257 1 0.05)
(2.755 1 0.05)
(2.77728 1 0.05)
(2.79941 1 0.05)
(2.82138 1 0.05)
(2.84321 1 0.05)
(2.86488 1 0.05)
(2.8864 1 0.05)
(2.90777 1 0.05)
(2.92899 1 0.05)
(2.95006 1 0.05)
(2.97099 1 0.05)
(2.99178 1 0.05)
(3.01242 1 0.05)
(3.03292 1 0.05)
(3.05327 1 0.05)
(3.07349 1 0.05)
(3.09356 1 0.05)
(3.1135 1 0.05)
(3.13329 1 0.05)
(3.15295 1 0.05)
(3.17248 1 0.05)
(3.19186 1 0.05)
(3.21112 1 0.05)
(3.23024 1 0.05)
(3.24923 1 0.05)
(3.26808 1 0.05)
(3.28681 1 0.05)
(3.30541 1 0.05)
(3.32387 1 0.05)
(3.34221 1 0.05)
(3.36042 1 0.05)
(3.37851 1 0.05)
(3.39647 1 0.05)
(3.41431 1 0.05)
(3.43202 1 0.05)
(3.44961 1 0.05)
(3.46708 1 0.05)
(3.48442 1 0.05)
(3.50165 1 0.05)
(3.51876 1 0.05)
(3.53575 1 0.05)
(3.55262 1 0.05)
(3.56937 1 0.05)
(3.58601 1 0.05)
(3.60253 1 0.05)
(3.61894 1 0.05)
(3.63524 1 0.05)
(3.65142 1 0.05)
(3.66749 1 0.05)
(3.68345 1 0.05)
(3.6993 1 0.05)
(3.71503 1 0.05)
(3.73066 1 0.05)
(3.74618 1 0.05)
(3.7616 1 0.05)
(3.7769 1 0.05)
(3.7921 1 0.05)
(3.8072 1 0.05)
(3.82219 1 0.05)
(3.83707 1 0.05)
(3.85186 1 0.05)
(3.86654 1 0.05)
(3.88112 1 0.05)
(3.8956 1 0.05)
(3.90997 1 0.05)
(3.92425 1 0.05)
(3.93843 1 0.05)
(3.95251 1 0.05)
(3.96649 1 0.05)
(3.98038 1 0.05)
(3.99417 1 0.05)
(4.00791 1 -0.05)
(4.02168 1 -0.05)
(4.03549 1 -0.05)
(4.04933 1 -0.05)
(4.0632 1 -0.05)
(4.07711 1 -0.05)
(4.09106 1 -0.05)
(4.10504 1 -0.05)
(4.11905 1 -0.05)
(4.1331 1 -0.05)
(4.14718 1 -0.05)
(4.1613 1 -0.05)
(4.17546 1 -0.05)
(4.18965 1 -0.05)
(4.20388 1 -0.05)
(4.21814 1 -0.05)
(4.23244 1 -0.05)
(4.24677 1 -0.05)
(4.26114 1 -0.05)
(4.27555 1 -0.05)
(4.28999 1 -0.05)
(4.30447 1 -0.05)
(4.31898 1 -0.05)
(4.33353 1 -0.05)
(4.34812 1 -0.05)
(4.36274 1 -0.05)
(4.3774 1 -0.05)
(4.3921 1 -0.05)
(4.40683 1 -0.05)
(4.42161 1 -0.05)
(4.43641 1 -0.05)
(4.45126 1 -0.05)
(4.46614 1 -0.05)
(4.48106 1 -0.05)
(4.49602 1 -0.05)
(4.51101 1 -0.05)
(4.52604 1 -0.05)
(4.54111 1 -0.05)
(4.55622 1 -0.05)
(4.57137 1 -0.05)
(4.58655 1 -0.05)
(4.60177 1 -0.05)
(4.61703 1 -0.05)
(4.63233 1 -0.05)
(4.64766 1 -0.05)
(4.66304 1 -0.05)
(4.67845 1 -0.05)
(4.6939 1 -0.05)
(4.70939 1 -0.05)
(4.72492 1 -0.05)
(4.74049 1 -0.05)
(4.75609 1 -0.05)
(4.77174 1 -0.05)
(4.78743 1 -0.05)
(4.80315 1 -0.05)
(4.81891 1 -0.05)
(4.83472 1 -0.05)
(4.85056 1 -0.05)
(4.86644 1 -0.05)
(4.88237 1 -0.05)
(4.89833 1 -0.05)
(4.91433 1 -0.05)
(4.93037 1 -0.05)
(4.94646 1 -0.05)
(4.96258 1 -0.05)
(4.97874 1 -0.05)
(4.99495 1 -0.05)
(5.01119 1 -0.05)
(5.02747 1 -0.05)
(5.0438 1 -0.05)
(5.06017 1 -0.05)
(5.07658 1 -0.05)
(5.09302 1 -0.05)
(5.10951 1 -0.05)
(5.12605 1 -0.05)
(5.14262 1 -0.05)
(5.15923 1 -0.05)
(5.17589 1 -0.05)
(5.19259 1 -0.05)
(5.20933 1 -0.05)
(5.22611 1 -0.05)
(5.24293 1 -0.05)
(5.2598 1 -0.05)
(5.27671 1 -0.05)
(5.29366 1 -0.05)
(5.31065 1 -0.05)
(5.32769 1 -0.05)
(5.34476 1 -0.05)
(5.36188 1 -0.05)
(5.37905 1 -0.05)
(5.39626 1 -0.05)
(5.41351 1 -0.05)
(5.4308 1 -0.05)
(5.44814 1 -0.05)
(5.46552 1 -0.05)
(5.48294 1 -0.05)
(5.50041 1 -0.05)
(5.51792 1 -0.05)
(5.53547 1 -0.05)
(5.55307 1 -0.05)
(5.57071 1 -0.05)
(5.5884 1 -0.05)
(5.60613 1 -0.05)
(5.62391 1 -0.05)
(5.64173 1 -0.05)
(5.65959 1 -0.05)
(5.6775 1 -0.05)
(5.69546 1 -0.05)
(5.71346 1 -0.05)
(5.7315 1 -0.05)
(5.74959 1 -0.05)
(5.76773 1 -0.05)
(5.78591 1 -0.05)
(5.80413 1 -0.05)
(5.82241 1 -0.05)
(5.84072 1 -0.05)
(5.85909 1 -0.05)
(5.8775 1 -0.05)
(5.89595 1 -0.05)
(5.91446 1 -0.05)
(5.933 1 -0.05)
(5.9516 1 -0.05)
(5.97024 1 -0.05)
(5.98893 1 -0.05)
(6.00766 1 -0.05)
(6.02645 1 -0.05)
(6.04528 1 -0.05)
(6.06415 1 -0.05)
(6.08307 1 -0.05)
(6.10205 1 -0.05)
(6.12106 1 -0.05)
(6.14013 1 -0.05)
(6.15924 1 -0.05)
(6.17841 1 -0.05)
(6.19762 1 -0.05)
(6.21687 1 -0.05)
(6.23618 1 -0.05)
(6.25553 1 -0.05)
(6.27494 1 -0.05)
(6.29439 1 -0.05)
(6.31389 1 -0.05)
(6.33344 1 -0.05)
(6.35304 1 -0.05)
(6.37268 1 -0.05)
(6.39238 1 -0.05)
(6.41213 1 -0.05)
(6.43192 1 -0.05)
(6.45177 1 -0.05)
(6.47166 1 -0.05)
(6.49161 1 -0.05)
(6.5116 1 -0.05)
(6.53165 1 -0.05)
(6.55174 1 -0.05)
(6.57189 1 -0.05)
(6.59208 1 -0.05)
(6.61233 1 -0.05)
(6.63263 1 -0.05)
(6.65297 1 -0.05)
(6.67337 1 -0.05)
(6.69382 1 -0.05)
(6.71432 1 -0.05)
(6.73488 1 -0.05)
(6.75548 1 -0.05)
(6.77614 1 -0.05)
(6.79684 1 -0.05)
(6.8176 1 -0.05)
(6.83841 1 -0.05)
(6.85928 1 -0.05)
(6.88019 1 -0.05)
(6.90116 1 -0.05)
(6.92218 1 -0.05)
(6.94326 1 -0.05)
(6.96438 1 -0.05)
(6.98556 1 -0.05)
(7.00679 1 -0.05)
(7.02808 1 -0.05)
(7.04942 1 -0.05)
(7.07081 1 -0.05)
(7.09226 1 -0.05)
(7.11376 1 -0.05)
(7.13531 1 -0.05)
(7.15692 1 -0.05)
(7.17858 1 -0.05)
(7.2003 1 -0.05)
(7.22207 1 -0.05)
(7.24389 1 -0.05)
(7.26577 1 -0.05)
(7.2877 1 -0.05)
(7.30969 1 -0.05)
(7.33174 1 -0.05)
(7.35384 1 -0.05)
(7.37599 1 -0.05)
(7.3982 1 -0.05)
(7.42047 1 -0.05)
(7.44279 1 -0.05)
(7.46517 1 -0.05)
(7.4876 1 -0.05)
(7.51009 1 -0.05)
(7.53264 1 -0.05)
(7.55524 1 -0.05)
(7.5779 1 -0.05)
(7.60062 1 -0.05)
(7.62339 1 -0.05)
(7.64622 1 -0.05)
(7.66911 1 -0.05)
(7.69206 1 -0.05)
(7.71506 1 -0.05)
(7.73812 1 -0.05)
(7.76124 1 -0.05)
(7.78441 1 -0.05)
(7.80765 1 -0.05)
(7.83094 1 -0.05)
(7.85429 1 -0.05)
(7.8777 1 -0.05)
(7.90117 1 -0.05)
(7.92469 1 -0.05)
(7.94828 1 -0.05)
(7.97192 1 -0.05)
(7.99563 1 -0.05)
(8.01939 1 -0.05)
(8.04321 1 -0.05)
(8.06709 1 -0.05)
(8.09104 1 -0.05)
(8.11504 1 -0.05)
(8.1391 1 -0.05)
(8.16322 1 -0.05)
(8.18741 1 -0.05)
(8.21165 1 -0.05)
(8.23596 1 -0.05)
(8.26032 1 -0.05)
(8.28475 1 -0.05)
(8.30923 1 -0.05)
(8.33378 1 -0.05)
(8.35839 1 -0.05)
(8.38307 1 -0.05)
(8.4078 1 -0.05)
(8.4326 1 -0.05)
(8.45745 1 -0.05)
(8.48237 1 -0.05)
(8.50736 1 -0.05)
(8.5324 1 -0.05)
(8.55751 1 -0.05)
(8.58268 1 -0.05)
(8.60792 1 -0.05)
(8.63321 1 -0.05)
(8.65857 1 -0.05)
(8.684 1 -0.05)
(8.70949 1 -0.05)
(8.73504 1 -0.05)
(8.76065 1 -0.05)
(8.78633 1 -0.05)
(8.81208 1 -0.05)
(8.83789 1 -0.05)
(8.86376 1 -0.05)
(8.8897 1 -0.05)
(8.9157 1 -0.05)
(8.94177 1 -0.05)
(8.96791 1 -0.05)
(8.9941 1 -0.05)
(9.02037 1 -0.05)
(9.0467 1 -0.05)
(9.0731 1 -0.05)
(9.09956 1 -0.05)
(9.12609 1 -0.05)
(9.15269 1 -0.05)
(9.17935 1 -0.05)
(9.20608 1 -0.05)
(9.23287 1 -0.05)
(9.25974 1 -0.05)
(9.28667 1 -0.05)
(9.31366 1 -0.05)
(9.34073 1 -0.05)
(9.36786 1 -0.05)
(9.39507 1 -0.05)
(9.42234 1 -0.05)
(9.44967 1 -0.05)
(9.47708 1 -0.05)
(9.50455 1 -0.05)
(9.5321 1 -0.05)
(9.55971 1 -0.05)
(9.58739 1 -0.05)
(9.61515 1 -0.05)
(9.64297 1 -0.05)
(9.67086 1 -0.05)
(9.69882 1 -0.05)
(9.72685 1 -0.05)
(9.75495 1 -0.05)
(9.78312 1 -0.05)
(9.81136 1 -0.05)
(9.83968 1 -0.05)
(9.86806 1 -0.05)
(9.89652 1 -0.05)
(9.92504 1 -0.05)
(9.95364 1 -0.05)
(9.98231 1 -0.05)
(10.011 1 -0.05)
(10.0399 1 -0.05)
(10.0687 1 -0.05)
(10.0977 1 -0.05)
(10.1267 1 -0.05)
(10.1558 1 -0.05)
(10.185 1 -0.05)
(10.2143 1 -0.05)
(10.2436 1 -0.05)
(10.273 1 -0.05)
(10.3025 1 -0.05)
(10.332 1 -0.05)
(10.3616 1 -0.05)
(10.3913 1 -0.05)
(10.4211 1 -0.05)
(10.4509 1 -0.05)
(10.4808 1 -0.05)
(10.5108 1 -0.05)
(10.5409 1 -0.05)
(10.571 1 -0.05)
(10.6012 1 -0.05)
(10.6315 1 -0.05)
(10.6619 1 -0.05)
(10.6923 1 -0.05)
(10.7229 1 -0.05)
(10.7535 1 -0.05)
(10.7841 1 -0.05)
(10.8149 1 -0.05)
(10.8457 1 -0.05)
(10.8766 1 -0.05)
(10.9076 1 -0.05)
(10.9387 1 -0.05)
(10.9698 1 -0.05)
(11.001 1 -0.05)
(11.0323 1 -0.05)
(11.0637 1 -0.05)
(11.0951 1 -0.05)
(11.1267 1 -0.05)
(11.1583 1 -0.05)
(11.19 1 -0.05)
(11.2217 1 -0.05)
(11.2536 1 -0.05)
(11.2855 1 -0.05)
(11.3175 1 -0.05)
(11.3496 1 -0.05)
(11.3818 1 -0.05)
(11.414 1 -0.05)
(11.4463 1 -0.05)
(11.4787 1 -0.05)
(11.5112 1 -0.05)
(11.5438 1 -0.05)
(11.5765 1 -0.05)
(11.6092 1 -0.05)
(11.642 1 -0.05)
(11.6749 1 -0.05)
(11.7079 1 -0.05)
(11.741 1 -0.05)
(11.7741 1 -0.05)
(11.8073 1 -0.05)
(11.8406 1 -0.05)
(11.874 1 -0.05)
(11.9075 1 -0.05)
(11.9411 1 -0.05)
(11.9747 1 -0.05)
(12.0085 1 -0.05)
(12.0423 1 -0.05)
(12.0762 1 -0.05)
(12.1102 1 -0.05)
(12.1443 1 -0.05)
(12.1784 1 -0.05)
(12.2127 1 -0.05)
(12.247 1 -0.05)
(12.2814 1 -0.05)
(12.3159 1 -0.05)
(12.3505 1 -0.05)
(12.3852 1 -0.05)
(12.4199 1 -0.05)
(12.4548 1 -0.05)
(12.4897 1 -0.05)
(12.5247 1 -0.05)
(12.5598 1 -0.05)
(12.595 1 -0.05)
(12.6303 1 -0.05)
(12.6657 1 -0.05)
(12.7012 1 -0.05)
(12.7367 1 -0.05)
(12.7724 1 -0.05)
(12.8081 1 -0.05)
(12.8439 1 -0.05)
(12.8798 1 -0.05)
(12.9158 1 -0.05)
(12.9519 1 -0.05)
(12.9881 1 -0.05)
(13.0244 1 -0.05)
(13.0607 1 -0.05)
(13.0972 1 -0.05)
(13.1338 1 -0.05)
(13.1704 1 -0.05)
(13.2071 1 -0.05)
(13.2439 1 -0.05)
(13.2809 1 -0.05)
(13.3179 1 -0.05)
(13.355 1 -0.05)
(13.3921 1 -0.05)
(13.4294 1 -0.05)
(13.4668 1 -0.05)
(13.5043 1 -0.05)
(13.5419 1 -0.05)
(13.5795 1 -0.05)
(13.6173 1 -0.05)
(13.6551 1 -0.05)
(13.6931 1 -0.05)
(13.7311 1 -0.05)
(13.7692 1 -0.05)
(13.8075 1 -0.05)
(13.8458 1 -0.05)
(13.8842 1 -0.05)
(13.9227 1 -0.05)
(13.9613 1 -0.05)
(14.0001 1 -0.05)
(14.0389 1 -0.05)
(14.0778 1 -0.05)
(14.1168 1 -0.05)
(14.1559 1 -0.05)
(14.1951 1 -0.05)
(14.2344 1 -0.05)
(14.2738 1 -0.05)
(14.3133 1 -0.05)
(14.3528 1 -0.05)
(14.3925 1 -0.05)
(14.4323 1 -0.05)
(14.4722 1 -0.05)
(14.5122 1 -0.05)
(14.5523 1 -0.05)
(14.5925 1 -0.05)
(14.6328 1 -0.05)
(14.6732 1 -0.05)
(14.7137 1 -0.05)
(14.7543 1 -0.05)
(14.795 1 -0.05)
(14.8358 1 -0.05)
(14.8767 1 -0.05)
(14.9177 1 -0.05)
(14.9588 1 -0.05)
(15 0.261916 -0.05)
(15 0.254884 -0.05)
(15 0.26923 -0.05)
(15 0.276836 -0.05)
(15 0.284746 -0.05)
(15 0.292973 -0.05)
(15 0.30153 -0.05)
(15 0.310428 -0.05)
(15 0.319683 -0.05)
(15 0.329308 -0.05)
(15 0.339318 -0.05)
(15 0.349729 -0.05)
(15 0.360556 -0.05)
(15 0.371817 -0.05)
(15 0.383528 -0.05)
(15 0.395708 -0.05)
(15 0.408375 -0.05)
(15 0.42155 -0.05)
(15 0.435251 -0.05)
(15 0.449501 -0.05)
(15 0.46432 -0.05)
(15 0.479733 -0.05)
(15 0.495763 -0.05)
(15 0.512434 -0.05)
(15 0.529772 -0.05)
(15 0.547804 -0.05)
(15 0.566558 -0.05)
(15 0.586062 -0.05)
(15 0.606346 -0.05)
(15 0.627442 -0.05)
(15 0.647838 -0.05)
(15 0.667475 -0.05)
(15 0.686382 -0.05)
(15 0.704586 -0.05)
(15 0.722114 -0.05)
(15 0.73899 -0.05)
(15 0.755239 -0.05)
(15 0.770883 -0.05)
(15 0.785946 -0.05)
(15 0.80045 -0.05)
(15 0.814414 -0.05)
(15 0.827858 -0.05)
(15 0.840803 -0.05)
(15 0.853267 -0.05)
(15 0.865268 -0.05)
(15 0.876822 -0.05)
(15 0.887947 -0.05)
(15 0.898658 -0.05)
(15 0.908971 -0.05)
(15 0.918901 -0.05)
(15 0.928462 -0.05)
(15 0.937667 -0.05)
(15 0.94653 -0.05)
(15 0.955063 -0.05)
(15 0.963279 -0.05)
(15 0.97119 -0.05)
(15 0.978807 -0.05)
(15 0.986141 -0.05)
(15 0.993202 -0.05)
(4.00791 1 0.05)
(4.02168 1 0.05)
(4.03549 1 0.05)
(4.04933 1 0.05)
(4.0632 1 0.05)
(4.07711 1 0.05)
(4.09106 1 0.05)
(4.10504 1 0.05)
(4.11905 1 0.05)
(4.1331 1 0.05)
(4.14718 1 0.05)
(4.1613 1 0.05)
(4.17546 1 0.05)
(4.18965 1 0.05)
(4.20388 1 0.05)
(4.21814 1 0.05)
(4.23244 1 0.05)
(4.24677 1 0.05)
(4.26114 1 0.05)
(4.27555 1 0.05)
(4.28999 1 0.05)
(4.30447 1 0.05)
(4.31898 1 0.05)
(4.33353 1 0.05)
(4.34812 1 0.05)
(4.36274 1 0.05)
(4.3774 1 0.05)
(4.3921 1 0.05)
(4.40683 1 0.05)
(4.42161 1 0.05)
(4.43641 1 0.05)
(4.45126 1 0.05)
(4.46614 1 0.05)
(4.48106 1 0.05)
(4.49602 1 0.05)
(4.51101 1 0.05)
(4.52604 1 0.05)
(4.54111 1 0.05)
(4.55622 1 0.05)
(4.57137 1 0.05)
(4.58655 1 0.05)
(4.60177 1 0.05)
(4.61703 1 0.05)
(4.63233 1 0.05)
(4.64766 1 0.05)
(4.66304 1 0.05)
(4.67845 1 0.05)
(4.6939 1 0.05)
(4.70939 1 0.05)
(4.72492 1 0.05)
(4.74049 1 0.05)
(4.75609 1 0.05)
(4.77174 1 0.05)
(4.78743 1 0.05)
(4.80315 1 0.05)
(4.81891 1 0.05)
(4.83472 1 0.05)
(4.85056 1 0.05)
(4.86644 1 0.05)
(4.88237 1 0.05)
(4.89833 1 0.05)
(4.91433 1 0.05)
(4.93037 1 0.05)
(4.94646 1 0.05)
(4.96258 1 0.05)
(4.97874 1 0.05)
(4.99495 1 0.05)
(5.01119 1 0.05)
(5.02747 1 0.05)
(5.0438 1 0.05)
(5.06017 1 0.05)
(5.07658 1 0.05)
(5.09302 1 0.05)
(5.10951 1 0.05)
(5.12605 1 0.05)
(5.14262 1 0.05)
(5.15923 1 0.05)
(5.17589 1 0.05)
(5.19259 1 0.05)
(5.20933 1 0.05)
(5.22611 1 0.05)
(5.24293 1 0.05)
(5.2598 1 0.05)
(5.27671 1 0.05)
(5.29366 1 0.05)
(5.31065 1 0.05)
(5.32769 1 0.05)
(5.34476 1 0.05)
(5.36188 1 0.05)
(5.37905 1 0.05)
(5.39626 1 0.05)
(5.41351 1 0.05)
(5.4308 1 0.05)
(5.44814 1 0.05)
(5.46552 1 0.05)
(5.48294 1 0.05)
(5.50041 1 0.05)
(5.51792 1 0.05)
(5.53547 1 0.05)
(5.55307 1 0.05)
(5.57071 1 0.05)
(5.5884 1 0.05)
(5.60613 1 0.05)
(5.62391 1 0.05)
(5.64173 1 0.05)
(5.65959 1 0.05)
(5.6775 1 0.05)
(5.69546 1 0.05)
(5.71346 1 0.05)
(5.7315 1 0.05)
(5.74959 1 0.05)
(5.76773 1 0.05)
(5.78591 1 0.05)
(5.80413 1 0.05)
(5.82241 1 0.05)
(5.84072 1 0.05)
(5.85909 1 0.05)
(5.8775 1 0.05)
(5.89595 1 0.05)
(5.91446 1 0.05)
(5.933 1 0.05)
(5.9516 1 0.05)
(5.97024 1 0.05)
(5.98893 1 0.05)
(6.00766 1 0.05)
(6.02645 1 0.05)
(6.04528 1 0.05)
(6.06415 1 0.05)
(6.08307 1 0.05)
(6.10205 1 0.05)
(6.12106 1 0.05)
(6.14013 1 0.05)
(6.15924 1 0.05)
(6.17841 1 0.05)
(6.19762 1 0.05)
(6.21687 1 0.05)
(6.23618 1 0.05)
(6.25553 1 0.05)
(6.27494 1 0.05)
(6.29439 1 0.05)
(6.31389 1 0.05)
(6.33344 1 0.05)
(6.35304 1 0.05)
(6.37268 1 0.05)
(6.39238 1 0.05)
(6.41213 1 0.05)
(6.43192 1 0.05)
(6.45177 1 0.05)
(6.47166 1 0.05)
(6.49161 1 0.05)
(6.5116 1 0.05)
(6.53165 1 0.05)
(6.55174 1 0.05)
(6.57189 1 0.05)
(6.59208 1 0.05)
(6.61233 1 0.05)
(6.63263 1 0.05)
(6.65297 1 0.05)
(6.67337 1 0.05)
(6.69382 1 0.05)
(6.71432 1 0.05)
(6.73488 1 0.05)
(6.75548 1 0.05)
(6.77614 1 0.05)
(6.79684 1 0.05)
(6.8176 1 0.05)
(6.83841 1 0.05)
(6.85928 1 0.05)
(6.88019 1 0.05)
(6.90116 1 0.05)
(6.92218 1 0.05)
(6.94326 1 0.05)
(6.96438 1 0.05)
(6.98556 1 0.05)
(7.00679 1 0.05)
(7.02808 1 0.05)
(7.04942 1 0.05)
(7.07081 1 0.05)
(7.09226 1 0.05)
(7.11376 1 0.05)
(7.13531 1 0.05)
(7.15692 1 0.05)
(7.17858 1 0.05)
(7.2003 1 0.05)
(7.22207 1 0.05)
(7.24389 1 0.05)
(7.26577 1 0.05)
(7.2877 1 0.05)
(7.30969 1 0.05)
(7.33174 1 0.05)
(7.35384 1 0.05)
(7.37599 1 0.05)
(7.3982 1 0.05)
(7.42047 1 0.05)
(7.44279 1 0.05)
(7.46517 1 0.05)
(7.4876 1 0.05)
(7.51009 1 0.05)
(7.53264 1 0.05)
(7.55524 1 0.05)
(7.5779 1 0.05)
(7.60062 1 0.05)
(7.62339 1 0.05)
(7.64622 1 0.05)
(7.66911 1 0.05)
(7.69206 1 0.05)
(7.71506 1 0.05)
(7.73812 1 0.05)
(7.76124 1 0.05)
(7.78441 1 0.05)
(7.80765 1 0.05)
(7.83094 1 0.05)
(7.85429 1 0.05)
(7.8777 1 0.05)
(7.90117 1 0.05)
(7.92469 1 0.05)
(7.94828 1 0.05)
(7.97192 1 0.05)
(7.99563 1 0.05)
(8.01939 1 0.05)
(8.04321 1 0.05)
(8.06709 1 0.05)
(8.09104 1 0.05)
(8.11504 1 0.05)
(8.1391 1 0.05)
(8.16322 1 0.05)
(8.18741 1 0.05)
(8.21165 1 0.05)
(8.23596 1 0.05)
(8.26032 1 0.05)
(8.28475 1 0.05)
(8.30923 1 0.05)
(8.33378 1 0.05)
(8.35839 1 0.05)
(8.38307 1 0.05)
(8.4078 1 0.05)
(8.4326 1 0.05)
(8.45745 1 0.05)
(8.48237 1 0.05)
(8.50736 1 0.05)
(8.5324 1 0.05)
(8.55751 1 0.05)
(8.58268 1 0.05)
(8.60792 1 0.05)
(8.63321 1 0.05)
(8.65857 1 0.05)
(8.684 1 0.05)
(8.70949 1 0.05)
(8.73504 1 0.05)
(8.76065 1 0.05)
(8.78633 1 0.05)
(8.81208 1 0.05)
(8.83789 1 0.05)
(8.86376 1 0.05)
(8.8897 1 0.05)
(8.9157 1 0.05)
(8.94177 1 0.05)
(8.96791 1 0.05)
(8.9941 1 0.05)
(9.02037 1 0.05)
(9.0467 1 0.05)
(9.0731 1 0.05)
(9.09956 1 0.05)
(9.12609 1 0.05)
(9.15269 1 0.05)
(9.17935 1 0.05)
(9.20608 1 0.05)
(9.23287 1 0.05)
(9.25974 1 0.05)
(9.28667 1 0.05)
(9.31366 1 0.05)
(9.34073 1 0.05)
(9.36786 1 0.05)
(9.39507 1 0.05)
(9.42234 1 0.05)
(9.44967 1 0.05)
(9.47708 1 0.05)
(9.50455 1 0.05)
(9.5321 1 0.05)
(9.55971 1 0.05)
(9.58739 1 0.05)
(9.61515 1 0.05)
(9.64297 1 0.05)
(9.67086 1 0.05)
(9.69882 1 0.05)
(9.72685 1 0.05)
(9.75495 1 0.05)
(9.78312 1 0.05)
(9.81136 1 0.05)
(9.83968 1 0.05)
(9.86806 1 0.05)
(9.89652 1 0.05)
(9.92504 1 0.05)
(9.95364 1 0.05)
(9.98231 1 0.05)
(10.011 1 0.05)
(10.0399 1 0.05)
(10.0687 1 0.05)
(10.0977 1 0.05)
(10.1267 1 0.05)
(10.1558 1 0.05)
(10.185 1 0.05)
(10.2143 1 0.05)
(10.2436 1 0.05)
(10.273 1 0.05)
(10.3025 1 0.05)
(10.332 1 0.05)
(10.3616 1 0.05)
(10.3913 1 0.05)
(10.4211 1 0.05)
(10.4509 1 0.05)
(10.4808 1 0.05)
(10.5108 1 0.05)
(10.5409 1 0.05)
(10.571 1 0.05)
(10.6012 1 0.05)
(10.6315 1 0.05)
(10.6619 1 0.05)
(10.6923 1 0.05)
(10.7229 1 0.05)
(10.7535 1 0.05)
(10.7841 1 0.05)
(10.8149 1 0.05)
(10.8457 1 0.05)
(10.8766 1 0.05)
(10.9076 1 0.05)
(10.9387 1 0.05)
(10.9698 1 0.05)
(11.001 1 0.05)
(11.0323 1 0.05)
(11.0637 1 0.05)
(11.0951 1 0.05)
(11.1267 1 0.05)
(11.1583 1 0.05)
(11.19 1 0.05)
(11.2217 1 0.05)
(11.2536 1 0.05)
(11.2855 1 0.05)
(11.3175 1 0.05)
(11.3496 1 0.05)
(11.3818 1 0.05)
(11.414 1 0.05)
(11.4463 1 0.05)
(11.4787 1 0.05)
(11.5112 1 0.05)
(11.5438 1 0.05)
(11.5765 1 0.05)
(11.6092 1 0.05)
(11.642 1 0.05)
(11.6749 1 0.05)
(11.7079 1 0.05)
(11.741 1 0.05)
(11.7741 1 0.05)
(11.8073 1 0.05)
(11.8406 1 0.05)
(11.874 1 0.05)
(11.9075 1 0.05)
(11.9411 1 0.05)
(11.9747 1 0.05)
(12.0085 1 0.05)
(12.0423 1 0.05)
(12.0762 1 0.05)
(12.1102 1 0.05)
(12.1443 1 0.05)
(12.1784 1 0.05)
(12.2127 1 0.05)
(12.247 1 0.05)
(12.2814 1 0.05)
(12.3159 1 0.05)
(12.3505 1 0.05)
(12.3852 1 0.05)
(12.4199 1 0.05)
(12.4548 1 0.05)
(12.4897 1 0.05)
(12.5247 1 0.05)
(12.5598 1 0.05)
(12.595 1 0.05)
(12.6303 1 0.05)
(12.6657 1 0.05)
(12.7012 1 0.05)
(12.7367 1 0.05)
(12.7724 1 0.05)
(12.8081 1 0.05)
(12.8439 1 0.05)
(12.8798 1 0.05)
(12.9158 1 0.05)
(12.9519 1 0.05)
(12.9881 1 0.05)
(13.0244 1 0.05)
(13.0607 1 0.05)
(13.0972 1 0.05)
(13.1338 1 0.05)
(13.1704 1 0.05)
(13.2071 1 0.05)
(13.2439 1 0.05)
(13.2809 1 0.05)
(13.3179 1 0.05)
(13.355 1 0.05)
(13.3921 1 0.05)
(13.4294 1 0.05)
(13.4668 1 0.05)
(13.5043 1 0.05)
(13.5419 1 0.05)
(13.5795 1 0.05)
(13.6173 1 0.05)
(13.6551 1 0.05)
(13.6931 1 0.05)
(13.7311 1 0.05)
(13.7692 1 0.05)
(13.8075 1 0.05)
(13.8458 1 0.05)
(13.8842 1 0.05)
(13.9227 1 0.05)
(13.9613 1 0.05)
(14.0001 1 0.05)
(14.0389 1 0.05)
(14.0778 1 0.05)