FoamFile
{
    version     2.0;
    format      ascii;
    class       dictionary;
    object      extrudeMeshDict;
}

constructFrom mesh;
sourceCase ".";
sourcePatches    (back);
extrudeType      patchNormal;
exposedPatchName back;
direction (0 1 0);

flipNormals false;

extrudeModel linearDirection;

expansionRatio 1;
firstLayerThickness 0.005;
nLayers 10;

linearDirectionCoeffs
{
    direction (0 1 0);
    thickness 0.15;
}

mergeFaces false;
mergeTol 0;
